  Page 1                                             07/01/2021 10:43:14
  **********************************************************************
  *                             E P A N E T                            *
  *                     Hydraulic and Water Quality                    *
  *                     Analysis for Pipe Networks                     *
  *                           Version 2.0                              *
  **********************************************************************
  
  Input File: foss_NET_Cl.net
  
  foss_poly_1   foss_ripro_Cl
  
  Link - Node Table:
  ----------------------------------------------------------------------
  Link           Start          End                Length  Diameter
  ID             Node           Node                    m        mm
  ----------------------------------------------------------------------
  1              1              17                 132.76     51.40
  2              17             2                  374.68     32.60
  3              2              3                  119.74     16.00
  4              3              4                  312.72     16.00
  5              4              5                  289.09     16.00
  6              5              6                  336.33     16.00
  7              6              7                  135.81     16.00
  8              7              24                 201.26     26.00
  9              24             8                  132.53     40.80
  10             8              28                 144.66     51.40
  11             28             9                  175.72     51.40
  12             9              36                 112.17     51.40
  13             36             1                  210.74     61.40
  14             1              31                  75.41    114.60
  15             31             10                 181.42    102.20
  16             10             11                 146.96    102.20
  17             11             19                 162.69     51.40
  18             19             12                  99.64     40.80
  19             12             4                   52.98     26.00
  20             2              18                 162.97     16.00
  21             18             10                  83.96     20.40
  22             10             32                  49.82     32.60
  23             32             27                  78.50     40.80
  24             27             16                  99.27     32.60
  25             16             25                  82.29     40.80
  26             25             8                  147.49     16.00
  27             3              11                 197.32     32.60
  28             11             26                  83.30     73.60
  29             26             15                 113.80     73.60
  30             15             22                  80.82     40.80
  31             22             7                  340.97     16.00
  32             5              13                  77.39     32.60
  33             13             14                 112.37     40.80
  34             14             20                  37.34     61.40
  35             20             15                 108.85     61.40
  36             15             16                 182.82     16.00
  37             16             29                 136.02     32.60


  Page 2     foss_poly_1   foss_ripro_Cl
  Link - Node Table: (continued)
  ----------------------------------------------------------------------
  Link           Start          End                Length  Diameter
  ID             Node           Node                    m        mm
  ----------------------------------------------------------------------
  38             29             30                  56.70     26.00
  39             30             9                  124.08     16.00
  40             17             18                 234.60     32.60
  41             12             13                 203.83     16.00
  42             19             20                 248.05     16.00
  43             14             21                  65.19     51.40
  44             21             6                  210.09     40.80
  45             21             22                 147.57     16.00
  46             22             23                 103.80     16.00
  47             24             23                 210.95     16.00
  48             23             25                  75.08     32.60
  49             26             27                 180.29     16.00
  50             28             29                 149.05     16.00
  51             29             33                 215.05     32.60
  52             32             33                 144.44     40.80
  53             33             34                  34.74     51.40
  54             31             34                  59.93     61.40
  55             34             35                 165.67     16.00
  56             30             35                 119.97     32.60
  57             35             36                  83.17     40.80
  58             37             1                    1.00    147.20
  
  Node Results at 0:00 Hrs:
  ----------------------------------------------------------------------
  Node                Demand      Head  Pressure   Quality
  ID                     LPS         m         m      mg/L
  ----------------------------------------------------------------------
  1                     0.49    120.98     55.83      0.00
  2                     1.04     89.89     25.49      0.00
  3                     1.02     90.13     26.78      0.00
  4                     0.81     82.95     20.45      0.00
  5                     0.63     82.40     21.16      0.00
  6                     0.79     85.66     20.26      0.00
  7                     0.26     89.77     21.87      0.00
  8                     0.58     96.88     30.38      0.00
  9                     0.54    104.46     38.46      0.00
  10                    1.11    108.90     44.73      0.00
  11                    1.75    103.96     40.26      0.00
  12                    0.91     87.95     25.31      0.00
  13                    1.16     83.78     21.88      0.00
  14                    0.54     88.79     26.19      0.00
  15                    1.10     94.50     31.00      0.00
  16                    1.21     88.19     23.89      0.00
  17                    1.27    112.16     46.66      0.00
  18                    2.02     89.48     25.38      0.00
  19                    1.88     93.06     30.16      0.00
  20                    0.93     89.87     27.04      0.00


  Page 3     foss_poly_1   foss_ripro_Cl
  Node Results at 0:00 Hrs: (continued)
  ----------------------------------------------------------------------
  Node                Demand      Head  Pressure   Quality
  ID                     LPS         m         m      mg/L
  ----------------------------------------------------------------------
  21                    0.96     87.87     25.07      0.00
  22                    0.97     92.07     28.17      0.00
  23                    0.86     84.88     20.68      0.00
  24                    0.67     93.84     26.34      0.00
  25                    0.77     86.25     21.85      0.00
  26                    1.69     98.99     35.59      0.00
  27                    1.42     95.18     31.28      0.00
  28                    0.30     99.67     34.02      0.00
  29                    0.62     96.94     32.44      0.00
  30                    0.54     99.29     35.19      0.00
  31                    0.90    117.60     53.19      0.00
  32                    1.03    102.90     38.70      0.00
  33                    0.77    112.27     47.67      0.00
  34                    0.74    114.84     50.14      0.00
  35                    1.16    104.50     39.07      0.00
  36                    0.47    109.40     43.50      0.00
  37                  -33.91    121.00      0.00      0.00 Reservoir
  
  Link Results at 0:00 Hrs:
  ----------------------------------------------------------------------
  Link                  Flow  VelocityUnit Headloss    Status
  ID                     LPS       m/s      m/km
  ----------------------------------------------------------------------
  1                     3.67      1.77     66.42      Open
  2                     1.04      1.25     59.42      Open
  3                    -0.03      0.13      1.95      Open
  4                     0.10      0.48     22.95      Open
  5                     0.03      0.12      1.89      Open
  6                    -0.06      0.31      9.68      Open
  7                    -0.11      0.55     30.26      Open
  8                    -0.32      0.61     20.24      Open
  9                    -1.13      0.86     22.92      Open
  10                   -1.88      0.91     19.31      Open
  11                   -2.27      1.09     27.25      Open
  12                   -2.94      1.42     44.07      Open
  13                   -5.29      1.79     54.91      Open
  14                   24.46      2.37     44.83      Open
  15                   18.76      2.29     47.91      Open
  16                   15.49      1.89     33.60      Open
  17                    3.69      1.78     67.04      Open
  18                    1.74      1.33     51.29      Open
  19                    0.74      1.39     94.35      Open
  20                    0.03      0.14      2.52      Open
  21                   -0.63      1.94    231.29      Open
  22                    1.53      1.83    120.41      Open
  23                    2.47      1.89     98.37      Open
  24                    1.14      1.37     70.43      Open


  Page 4     foss_poly_1   foss_ripro_Cl
  Link Results at 0:00 Hrs: (continued)
  ----------------------------------------------------------------------
  Link                  Flow  VelocityUnit Headloss    Status
  ID                     LPS       m/s      m/km
  ----------------------------------------------------------------------
  25                    1.14      0.87     23.59      Open
  26                   -0.18      0.89     72.07      Open
  27                   -1.14      1.37     70.13      Open
  28                    8.91      2.09     59.69      Open
  29                    7.13      1.68     39.48      Open
  30                    1.30      1.00     30.03      Open
  31                    0.05      0.25      6.76      Open
  32                   -0.54      0.65     17.75      Open
  33                   -1.61      1.23     44.62      Open
  34                   -3.74      1.26     28.99      Open
  35                   -4.60      1.56     42.50      Open
  36                    0.12      0.60     34.51      Open
  37                   -1.09      1.31     64.36      Open
  38                   -0.47      0.89     41.36      Open
  39                   -0.13      0.66     41.67      Open
  40                    1.36      1.63     96.65      Open
  41                    0.09      0.45     20.46      Open
  42                    0.07      0.35     12.84      Open
  43                    1.59      0.77     14.12      Open
  44                    0.74      0.57     10.53      Open
  45                   -0.11      0.54     28.48      Open
  46                    0.17      0.87     69.29      Open
  47                    0.13      0.67     42.48      Open
  48                   -0.55      0.66     18.24      Open
  49                    0.09      0.46     21.14      Open
  50                    0.09      0.42     18.30      Open
  51                   -1.15      1.38     71.26      Open
  52                   -1.97      1.51     64.83      Open
  53                   -3.90      1.88     74.12      Open
  54                    4.80      1.62     45.91      Open
  55                    0.16      0.82     62.46      Open
  56                   -0.88      1.06     43.40      Open
  57                   -1.88      1.43     59.00      Open
  58                   33.91      1.99     24.25      Open
  
  Node Results at 0:00 Hrs:
  ----------------------------------------------------------------------
  Node                Demand      Head  Pressure   Quality
  ID                     LPS         m         m      mg/L
  ----------------------------------------------------------------------
  1                     0.49    120.98     55.83    100.00
  2                     1.04     89.89     25.49      0.00
  3                     1.02     90.13     26.78      0.00
  4                     0.81     82.95     20.45      0.00
  5                     0.63     82.39     21.15      0.00
  6                     0.79     85.66     20.26      0.00
  7                     0.26     89.77     21.87      0.00


  Page 5     foss_poly_1   foss_ripro_Cl
  Node Results at 0:00 Hrs: (continued)
  ----------------------------------------------------------------------
  Node                Demand      Head  Pressure   Quality
  ID                     LPS         m         m      mg/L
  ----------------------------------------------------------------------
  8                     0.58     96.88     30.38      0.00
  9                     0.54    104.46     38.46      0.00
  10                    1.11    108.90     44.73      0.00
  11                    1.75    103.96     40.26      0.00
  12                    0.91     87.95     25.31      0.00
  13                    1.16     83.77     21.87      0.00
  14                    0.54     88.79     26.19      0.00
  15                    1.10     94.50     31.00      0.00
  16                    1.21     88.19     23.89      0.00
  17                    1.27    112.16     46.66      0.00
  18                    2.02     89.48     25.38      0.00
  19                    1.88     93.06     30.16      0.00
  20                    0.93     89.87     27.04      0.00
  21                    0.96     87.87     25.07      0.00
  22                    0.97     92.07     28.17      0.00
  23                    0.86     84.88     20.68      0.00
  24                    0.67     93.84     26.34      0.00
  25                    0.77     86.25     21.85      0.00
  26                    1.69     98.99     35.59      0.00
  27                    1.42     95.18     31.28      0.00
  28                    0.30     99.67     34.02      0.00
  29                    0.62     96.94     32.44      0.00
  30                    0.54     99.29     35.19      0.00
  31                    0.90    117.59     53.19      0.00
  32                    1.03    102.90     38.70      0.00
  33                    0.77    112.27     47.67      0.00
  34                    0.74    114.84     50.14      0.00
  35                    1.16    104.50     39.07      0.00
  36                    0.47    109.40     43.50      0.00
  37                  -33.91    121.00      0.00      0.00 Reservoir
  
  Link Results at 0:00 Hrs:
  ----------------------------------------------------------------------
  Link                  Flow  VelocityUnit Headloss    Status
  ID                     LPS       m/s      m/km
  ----------------------------------------------------------------------
  1                     3.67      1.77     66.42      Open
  2                     1.04      1.25     59.42      Open
  3                    -0.03      0.13      1.95      Open
  4                     0.10      0.48     22.96      Open
  5                     0.03      0.12      1.92      Open
  6                    -0.06      0.30      9.72      Open
  7                    -0.11      0.55     30.24      Open
  8                    -0.32      0.61     20.24      Open
  9                    -1.13      0.86     22.92      Open
  10                   -1.88      0.91     19.31      Open
  11                   -2.27      1.09     27.25      Open


  Page 6     foss_poly_1   foss_ripro_Cl
  Link Results at 0:00 Hrs: (continued)
  ----------------------------------------------------------------------
  Link                  Flow  VelocityUnit Headloss    Status
  ID                     LPS       m/s      m/km
  ----------------------------------------------------------------------
  12                   -2.94      1.42     44.07      Open
  13                   -5.29      1.79     54.91      Open
  14                   24.46      2.37     44.83      Open
  15                   18.76      2.29     47.91      Open
  16                   15.49      1.89     33.60      Open
  17                    3.69      1.78     67.04      Open
  18                    1.74      1.33     51.30      Open
  19                    0.74      1.39     94.37      Open
  20                    0.03      0.14      2.52      Open
  21                   -0.63      1.94    231.30      Open
  22                    1.53      1.83    120.41      Open
  23                    2.47      1.89     98.37      Open
  24                    1.14      1.37     70.43      Open
  25                    1.14      0.87     23.59      Open
  26                   -0.18      0.89     72.07      Open
  27                   -1.14      1.37     70.13      Open
  28                    8.91      2.09     59.69      Open
  29                    7.13      1.68     39.48      Open
  30                    1.30      1.00     30.01      Open
  31                    0.05      0.25      6.76      Open
  32                   -0.54      0.65     17.80      Open
  33                   -1.61      1.23     44.67      Open
  34                   -3.75      1.26     28.99      Open
  35                   -4.60      1.56     42.51      Open
  36                    0.12      0.60     34.51      Open
  37                   -1.09      1.31     64.36      Open
  38                   -0.47      0.89     41.36      Open
  39                   -0.13      0.66     41.67      Open
  40                    1.36      1.63     96.65      Open
  41                    0.09      0.45     20.49      Open
  42                    0.07      0.35     12.84      Open
  43                    1.59      0.77     14.12      Open
  44                    0.74      0.57     10.51      Open
  45                   -0.11      0.54     28.50      Open
  46                    0.17      0.87     69.31      Open
  47                    0.13      0.67     42.48      Open
  48                   -0.55      0.66     18.24      Open
  49                    0.09      0.46     21.14      Open
  50                    0.09      0.42     18.30      Open
  51                   -1.15      1.38     71.26      Open
  52                   -1.97      1.51     64.83      Open
  53                   -3.90      1.88     74.12      Open
  54                    4.80      1.62     45.91      Open
  55                    0.16      0.82     62.46      Open
  56                   -0.88      1.06     43.40      Open
  57                   -1.88      1.43     59.00      Open
  58                   33.91      1.99     24.25      Open


  Page 7     foss_poly_1   foss_ripro_Cl
  
  Node Results at 0:00 Hrs:
  ----------------------------------------------------------------------
  Node                Demand      Head  Pressure   Quality
  ID                     LPS         m         m      mg/L
  ----------------------------------------------------------------------
  1                     0.49    120.98     55.83    100.00
  2                     1.04     89.89     25.49      0.00
  3                     1.02     90.13     26.78      0.00
  4                     0.81     82.95     20.45      0.00
  5                     0.63     82.39     21.15      0.00
  6                     0.79     85.66     20.26      0.00
  7                     0.26     89.77     21.87      0.00
  8                     0.58     96.88     30.38      0.00
  9                     0.54    104.46     38.46      0.00
  10                    1.11    108.90     44.73      0.00
  11                    1.75    103.96     40.26      0.00
  12                    0.91     87.95     25.31      0.00
  13                    1.16     83.77     21.87      0.00
  14                    0.54     88.79     26.19      0.00
  15                    1.10     94.50     31.00      0.00
  16                    1.21     88.19     23.89      0.00
  17                    1.27    112.16     46.66      0.00
  18                    2.02     89.48     25.38      0.00
  19                    1.88     93.06     30.16      0.00
  20                    0.93     89.87     27.04      0.00
  21                    0.96     87.87     25.07      0.00
  22                    0.97     92.07     28.17      0.00
  23                    0.86     84.88     20.68      0.00
  24                    0.67     93.84     26.34      0.00
  25                    0.77     86.25     21.85      0.00
  26                    1.69     98.99     35.59      0.00
  27                    1.42     95.18     31.28      0.00
  28                    0.30     99.67     34.02      0.00
  29                    0.62     96.94     32.44      0.00
  30                    0.54     99.29     35.19      0.00
  31                    0.90    117.59     53.19      0.00
  32                    1.03    102.90     38.70      0.00
  33                    0.77    112.27     47.67      0.00
  34                    0.74    114.84     50.14      0.00
  35                    1.16    104.50     39.07      0.00
  36                    0.47    109.40     43.50      0.00
  37                  -33.91    121.00      0.00      0.00 Reservoir
  


  Page 8     foss_poly_1   foss_ripro_Cl
  Link Results at 0:00 Hrs:
  ----------------------------------------------------------------------
  Link                  Flow  VelocityUnit Headloss    Status
  ID                     LPS       m/s      m/km
  ----------------------------------------------------------------------
  1                     3.67      1.77     66.42      Open
  2                     1.04      1.25     59.42      Open
  3                    -0.03      0.13      1.95      Open
  4                     0.10      0.48     22.96      Open
  5                     0.03      0.12      1.92      Open
  6                    -0.06      0.30      9.72      Open
  7                    -0.11      0.55     30.24      Open
  8                    -0.32      0.61     20.24      Open
  9                    -1.13      0.86     22.92      Open
  10                   -1.88      0.91     19.31      Open
  11                   -2.27      1.09     27.25      Open
  12                   -2.94      1.42     44.07      Open
  13                   -5.29      1.79     54.91      Open
  14                   24.46      2.37     44.83      Open
  15                   18.76      2.29     47.91      Open
  16                   15.49      1.89     33.60      Open
  17                    3.69      1.78     67.04      Open
  18                    1.74      1.33     51.30      Open
  19                    0.74      1.39     94.37      Open
  20                    0.03      0.14      2.52      Open
  21                   -0.63      1.94    231.30      Open
  22                    1.53      1.83    120.41      Open
  23                    2.47      1.89     98.37      Open
  24                    1.14      1.37     70.43      Open
  25                    1.14      0.87     23.59      Open
  26                   -0.18      0.89     72.07      Open
  27                   -1.14      1.37     70.13      Open
  28                    8.91      2.09     59.69      Open
  29                    7.13      1.68     39.48      Open
  30                    1.30      1.00     30.01      Open
  31                    0.05      0.25      6.76      Open
  32                   -0.54      0.65     17.80      Open
  33                   -1.61      1.23     44.67      Open
  34                   -3.75      1.26     28.99      Open
  35                   -4.60      1.56     42.51      Open
  36                    0.12      0.60     34.51      Open
  37                   -1.09      1.31     64.36      Open
  38                   -0.47      0.89     41.36      Open
  39                   -0.13      0.66     41.67      Open
  40                    1.36      1.63     96.65      Open
  41                    0.09      0.45     20.49      Open
  42                    0.07      0.35     12.84      Open
  43                    1.59      0.77     14.12      Open
  44                    0.74      0.57     10.51      Open
  45                   -0.11      0.54     28.50      Open
  46                    0.17      0.87     69.31      Open
  47                    0.13      0.67     42.48      Open


  Page 9     foss_poly_1   foss_ripro_Cl
  Link Results at 0:00 Hrs: (continued)
  ----------------------------------------------------------------------
  Link                  Flow  VelocityUnit Headloss    Status
  ID                     LPS       m/s      m/km
  ----------------------------------------------------------------------
  48                   -0.55      0.66     18.24      Open
  49                    0.09      0.46     21.14      Open
  50                    0.09      0.42     18.30      Open
  51                   -1.15      1.38     71.26      Open
  52                   -1.97      1.51     64.83      Open
  53                   -3.90      1.88     74.12      Open
  54                    4.80      1.62     45.91      Open
  55                    0.16      0.82     62.46      Open
  56                   -0.88      1.06     43.40      Open
  57                   -1.88      1.43     59.00      Open
  58                   33.91      1.99     24.25      Open
  
  Node Results at 0:00 Hrs:
  ----------------------------------------------------------------------
  Node                Demand      Head  Pressure   Quality
  ID                     LPS         m         m      mg/L
  ----------------------------------------------------------------------
  1                     0.49    120.98     55.83    100.00
  2                     1.04     89.89     25.49      0.00
  3                     1.02     90.13     26.78      0.00
  4                     0.81     82.95     20.45      0.00
  5                     0.63     82.39     21.15      0.00
  6                     0.79     85.66     20.26      0.00
  7                     0.26     89.77     21.87      0.00
  8                     0.58     96.88     30.38      0.00
  9                     0.54    104.46     38.46      0.00
  10                    1.11    108.90     44.73      0.00
  11                    1.75    103.96     40.26      0.00
  12                    0.91     87.95     25.31      0.00
  13                    1.16     83.77     21.87      0.00
  14                    0.54     88.79     26.19      0.00
  15                    1.10     94.50     31.00      0.00
  16                    1.21     88.19     23.89      0.00
  17                    1.27    112.16     46.66      0.00
  18                    2.02     89.48     25.38      0.00
  19                    1.88     93.06     30.16      0.00
  20                    0.93     89.87     27.04      0.00
  21                    0.96     87.87     25.07      0.00
  22                    0.97     92.07     28.17      0.00
  23                    0.86     84.88     20.68      0.00
  24                    0.67     93.84     26.34      0.00
  25                    0.77     86.25     21.85      0.00
  26                    1.69     98.99     35.59      0.00
  27                    1.42     95.18     31.28      0.00
  28                    0.30     99.67     34.02      0.00
  29                    0.62     96.94     32.44      0.00
  30                    0.54     99.29     35.19      0.00


  Page 10    foss_poly_1   foss_ripro_Cl
  Node Results at 0:00 Hrs: (continued)
  ----------------------------------------------------------------------
  Node                Demand      Head  Pressure   Quality
  ID                     LPS         m         m      mg/L
  ----------------------------------------------------------------------
  31                    0.90    117.59     53.19      0.00
  32                    1.03    102.90     38.70      0.00
  33                    0.77    112.27     47.67      0.00
  34                    0.74    114.84     50.14      0.00
  35                    1.16    104.50     39.07      0.00
  36                    0.47    109.40     43.50      0.00
  37                  -33.91    121.00      0.00      0.00 Reservoir
  
  Link Results at 0:00 Hrs:
  ----------------------------------------------------------------------
  Link                  Flow  VelocityUnit Headloss    Status
  ID                     LPS       m/s      m/km
  ----------------------------------------------------------------------
  1                     3.67      1.77     66.42      Open
  2                     1.04      1.25     59.42      Open
  3                    -0.03      0.13      1.95      Open
  4                     0.10      0.48     22.96      Open
  5                     0.03      0.12      1.92      Open
  6                    -0.06      0.30      9.72      Open
  7                    -0.11      0.55     30.24      Open
  8                    -0.32      0.61     20.24      Open
  9                    -1.13      0.86     22.92      Open
  10                   -1.88      0.91     19.31      Open
  11                   -2.27      1.09     27.25      Open
  12                   -2.94      1.42     44.07      Open
  13                   -5.29      1.79     54.91      Open
  14                   24.46      2.37     44.83      Open
  15                   18.76      2.29     47.91      Open
  16                   15.49      1.89     33.60      Open
  17                    3.69      1.78     67.04      Open
  18                    1.74      1.33     51.30      Open
  19                    0.74      1.39     94.37      Open
  20                    0.03      0.14      2.52      Open
  21                   -0.63      1.94    231.30      Open
  22                    1.53      1.83    120.41      Open
  23                    2.47      1.89     98.37      Open
  24                    1.14      1.37     70.43      Open
  25                    1.14      0.87     23.59      Open
  26                   -0.18      0.89     72.07      Open
  27                   -1.14      1.37     70.13      Open
  28                    8.91      2.09     59.69      Open
  29                    7.13      1.68     39.48      Open
  30                    1.30      1.00     30.01      Open
  31                    0.05      0.25      6.76      Open
  32                   -0.54      0.65     17.80      Open
  33                   -1.61      1.23     44.67      Open
  34                   -3.75      1.26     28.99      Open


  Page 11    foss_poly_1   foss_ripro_Cl
  Link Results at 0:00 Hrs: (continued)
  ----------------------------------------------------------------------
  Link                  Flow  VelocityUnit Headloss    Status
  ID                     LPS       m/s      m/km
  ----------------------------------------------------------------------
  35                   -4.60      1.56     42.51      Open
  36                    0.12      0.60     34.51      Open
  37                   -1.09      1.31     64.36      Open
  38                   -0.47      0.89     41.36      Open
  39                   -0.13      0.66     41.67      Open
  40                    1.36      1.63     96.65      Open
  41                    0.09      0.45     20.49      Open
  42                    0.07      0.35     12.84      Open
  43                    1.59      0.77     14.12      Open
  44                    0.74      0.57     10.51      Open
  45                   -0.11      0.54     28.50      Open
  46                    0.17      0.87     69.31      Open
  47                    0.13      0.67     42.48      Open
  48                   -0.55      0.66     18.24      Open
  49                    0.09      0.46     21.14      Open
  50                    0.09      0.42     18.30      Open
  51                   -1.15      1.38     71.26      Open
  52                   -1.97      1.51     64.83      Open
  53                   -3.90      1.88     74.12      Open
  54                    4.80      1.62     45.91      Open
  55                    0.16      0.82     62.46      Open
  56                   -0.88      1.06     43.40      Open
  57                   -1.88      1.43     59.00      Open
  58                   33.91      1.99     24.25      Open
  
  Node Results at 0:00 Hrs:
  ----------------------------------------------------------------------
  Node                Demand      Head  Pressure   Quality
  ID                     LPS         m         m      mg/L
  ----------------------------------------------------------------------
  1                     0.49    120.98     55.83    100.00
  2                     1.04     89.89     25.49      0.00
  3                     1.02     90.13     26.78      0.00
  4                     0.81     82.95     20.45      0.00
  5                     0.63     82.39     21.15      0.00
  6                     0.79     85.66     20.26      0.00
  7                     0.26     89.77     21.87      0.00
  8                     0.58     96.88     30.38      0.00
  9                     0.54    104.46     38.46      0.00
  10                    1.11    108.90     44.73      0.00
  11                    1.75    103.96     40.26      0.00
  12                    0.91     87.95     25.31      0.00
  13                    1.16     83.77     21.87      0.00
  14                    0.54     88.79     26.19      0.00
  15                    1.10     94.50     31.00      0.00
  16                    1.21     88.19     23.89      0.00
  17                    1.27    112.16     46.66      0.00


  Page 12    foss_poly_1   foss_ripro_Cl
  Node Results at 0:00 Hrs: (continued)
  ----------------------------------------------------------------------
  Node                Demand      Head  Pressure   Quality
  ID                     LPS         m         m      mg/L
  ----------------------------------------------------------------------
  18                    2.02     89.48     25.38      0.00
  19                    1.88     93.06     30.16      0.00
  20                    0.93     89.87     27.04      0.00
  21                    0.96     87.87     25.07      0.00
  22                    0.97     92.07     28.17      0.00
  23                    0.86     84.88     20.68      0.00
  24                    0.67     93.84     26.34      0.00
  25                    0.77     86.25     21.85      0.00
  26                    1.69     98.99     35.59      0.00
  27                    1.42     95.18     31.28      0.00
  28                    0.30     99.67     34.02      0.00
  29                    0.62     96.94     32.44      0.00
  30                    0.54     99.29     35.19      0.00
  31                    0.90    117.59     53.19     82.00
  32                    1.03    102.90     38.70      0.00
  33                    0.77    112.27     47.67      0.00
  34                    0.74    114.84     50.14      0.00
  35                    1.16    104.50     39.07      0.00
  36                    0.47    109.40     43.50      0.00
  37                  -33.91    121.00      0.00      0.00 Reservoir
  
  Link Results at 0:00 Hrs:
  ----------------------------------------------------------------------
  Link                  Flow  VelocityUnit Headloss    Status
  ID                     LPS       m/s      m/km
  ----------------------------------------------------------------------
  1                     3.67      1.77     66.42      Open
  2                     1.04      1.25     59.42      Open
  3                    -0.03      0.13      1.95      Open
  4                     0.10      0.48     22.96      Open
  5                     0.03      0.12      1.92      Open
  6                    -0.06      0.30      9.72      Open
  7                    -0.11      0.55     30.24      Open
  8                    -0.32      0.61     20.24      Open
  9                    -1.13      0.86     22.92      Open
  10                   -1.88      0.91     19.31      Open
  11                   -2.27      1.09     27.25      Open
  12                   -2.94      1.42     44.07      Open
  13                   -5.29      1.79     54.91      Open
  14                   24.46      2.37     44.83      Open
  15                   18.76      2.29     47.91      Open
  16                   15.49      1.89     33.60      Open
  17                    3.69      1.78     67.04      Open
  18                    1.74      1.33     51.30      Open
  19                    0.74      1.39     94.37      Open
  20                    0.03      0.14      2.52      Open
  21                   -0.63      1.94    231.30      Open


  Page 13    foss_poly_1   foss_ripro_Cl
  Link Results at 0:00 Hrs: (continued)
  ----------------------------------------------------------------------
  Link                  Flow  VelocityUnit Headloss    Status
  ID                     LPS       m/s      m/km
  ----------------------------------------------------------------------
  22                    1.53      1.83    120.41      Open
  23                    2.47      1.89     98.37      Open
  24                    1.14      1.37     70.43      Open
  25                    1.14      0.87     23.59      Open
  26                   -0.18      0.89     72.07      Open
  27                   -1.14      1.37     70.13      Open
  28                    8.91      2.09     59.69      Open
  29                    7.13      1.68     39.48      Open
  30                    1.30      1.00     30.01      Open
  31                    0.05      0.25      6.76      Open
  32                   -0.54      0.65     17.80      Open
  33                   -1.61      1.23     44.67      Open
  34                   -3.75      1.26     28.99      Open
  35                   -4.60      1.56     42.51      Open
  36                    0.12      0.60     34.51      Open
  37                   -1.09      1.31     64.36      Open
  38                   -0.47      0.89     41.36      Open
  39                   -0.13      0.66     41.67      Open
  40                    1.36      1.63     96.65      Open
  41                    0.09      0.45     20.49      Open
  42                    0.07      0.35     12.84      Open
  43                    1.59      0.77     14.12      Open
  44                    0.74      0.57     10.51      Open
  45                   -0.11      0.54     28.50      Open
  46                    0.17      0.87     69.31      Open
  47                    0.13      0.67     42.48      Open
  48                   -0.55      0.66     18.24      Open
  49                    0.09      0.46     21.14      Open
  50                    0.09      0.42     18.30      Open
  51                   -1.15      1.38     71.26      Open
  52                   -1.97      1.51     64.83      Open
  53                   -3.90      1.88     74.12      Open
  54                    4.80      1.62     45.91      Open
  55                    0.16      0.82     62.46      Open
  56                   -0.88      1.06     43.40      Open
  57                   -1.88      1.43     59.00      Open
  58                   33.91      1.99     24.25      Open
  


  Page 14    foss_poly_1   foss_ripro_Cl
  Node Results at 0:00 Hrs:
  ----------------------------------------------------------------------
  Node                Demand      Head  Pressure   Quality
  ID                     LPS         m         m      mg/L
  ----------------------------------------------------------------------
  1                     0.49    120.98     55.83    100.00
  2                     1.04     89.89     25.49      0.00
  3                     1.02     90.13     26.78      0.00
  4                     0.81     82.95     20.45      0.00
  5                     0.63     82.39     21.15      0.00
  6                     0.79     85.66     20.26      0.00
  7                     0.26     89.77     21.87      0.00
  8                     0.58     96.88     30.38      0.00
  9                     0.54    104.46     38.46      0.00
  10                    1.11    108.90     44.73      0.00
  11                    1.75    103.96     40.26      0.00
  12                    0.91     87.95     25.31      0.00
  13                    1.16     83.77     21.87      0.00
  14                    0.54     88.79     26.19      0.00
  15                    1.10     94.50     31.00      0.00
  16                    1.21     88.19     23.89      0.00
  17                    1.27    112.16     46.66      0.00
  18                    2.02     89.48     25.38      0.00
  19                    1.88     93.06     30.16      0.00
  20                    0.93     89.87     27.04      0.00
  21                    0.96     87.87     25.07      0.00
  22                    0.97     92.07     28.17      0.00
  23                    0.86     84.88     20.68      0.00
  24                    0.67     93.84     26.34      0.00
  25                    0.77     86.25     21.85      0.00
  26                    1.69     98.99     35.59      0.00
  27                    1.42     95.18     31.28      0.00
  28                    0.30     99.67     34.02      0.00
  29                    0.62     96.94     32.44      0.00
  30                    0.54     99.29     35.19      0.00
  31                    0.90    117.59     53.19     99.98
  32                    1.03    102.90     38.70      0.00
  33                    0.77    112.27     47.67      0.00
  34                    0.74    114.84     50.14      0.00
  35                    1.16    104.50     39.07      0.00
  36                    0.47    109.40     43.50      0.00
  37                  -33.91    121.00      0.00      0.00 Reservoir
  


  Page 15    foss_poly_1   foss_ripro_Cl
  Link Results at 0:00 Hrs:
  ----------------------------------------------------------------------
  Link                  Flow  VelocityUnit Headloss    Status
  ID                     LPS       m/s      m/km
  ----------------------------------------------------------------------
  1                     3.67      1.77     66.42      Open
  2                     1.04      1.25     59.42      Open
  3                    -0.03      0.13      1.95      Open
  4                     0.10      0.48     22.96      Open
  5                     0.03      0.12      1.92      Open
  6                    -0.06      0.30      9.72      Open
  7                    -0.11      0.55     30.24      Open
  8                    -0.32      0.61     20.24      Open
  9                    -1.13      0.86     22.92      Open
  10                   -1.88      0.91     19.31      Open
  11                   -2.27      1.09     27.25      Open
  12                   -2.94      1.42     44.07      Open
  13                   -5.29      1.79     54.91      Open
  14                   24.46      2.37     44.83      Open
  15                   18.76      2.29     47.91      Open
  16                   15.49      1.89     33.60      Open
  17                    3.69      1.78     67.04      Open
  18                    1.74      1.33     51.30      Open
  19                    0.74      1.39     94.37      Open
  20                    0.03      0.14      2.52      Open
  21                   -0.63      1.94    231.30      Open
  22                    1.53      1.83    120.41      Open
  23                    2.47      1.89     98.37      Open
  24                    1.14      1.37     70.43      Open
  25                    1.14      0.87     23.59      Open
  26                   -0.18      0.89     72.07      Open
  27                   -1.14      1.37     70.13      Open
  28                    8.91      2.09     59.69      Open
  29                    7.13      1.68     39.48      Open
  30                    1.30      1.00     30.01      Open
  31                    0.05      0.25      6.76      Open
  32                   -0.54      0.65     17.80      Open
  33                   -1.61      1.23     44.67      Open
  34                   -3.75      1.26     28.99      Open
  35                   -4.60      1.56     42.51      Open
  36                    0.12      0.60     34.51      Open
  37                   -1.09      1.31     64.36      Open
  38                   -0.47      0.89     41.36      Open
  39                   -0.13      0.66     41.67      Open
  40                    1.36      1.63     96.65      Open
  41                    0.09      0.45     20.49      Open
  42                    0.07      0.35     12.84      Open
  43                    1.59      0.77     14.12      Open
  44                    0.74      0.57     10.51      Open
  45                   -0.11      0.54     28.50      Open
  46                    0.17      0.87     69.31      Open
  47                    0.13      0.67     42.48      Open


  Page 16    foss_poly_1   foss_ripro_Cl
  Link Results at 0:00 Hrs: (continued)
  ----------------------------------------------------------------------
  Link                  Flow  VelocityUnit Headloss    Status
  ID                     LPS       m/s      m/km
  ----------------------------------------------------------------------
  48                   -0.55      0.66     18.24      Open
  49                    0.09      0.46     21.14      Open
  50                    0.09      0.42     18.30      Open
  51                   -1.15      1.38     71.26      Open
  52                   -1.97      1.51     64.83      Open
  53                   -3.90      1.88     74.12      Open
  54                    4.80      1.62     45.91      Open
  55                    0.16      0.82     62.46      Open
  56                   -0.88      1.06     43.40      Open
  57                   -1.88      1.43     59.00      Open
  58                   33.91      1.99     24.25      Open
  
  Node Results at 0:01 Hrs:
  ----------------------------------------------------------------------
  Node                Demand      Head  Pressure   Quality
  ID                     LPS         m         m      mg/L
  ----------------------------------------------------------------------
  1                     0.49    120.98     55.83    100.00
  2                     1.04     89.89     25.49      0.00
  3                     1.02     90.13     26.78      0.00
  4                     0.81     82.95     20.45      0.00
  5                     0.63     82.39     21.15      0.00
  6                     0.79     85.66     20.26      0.00
  7                     0.26     89.77     21.87      0.00
  8                     0.58     96.88     30.38      0.00
  9                     0.54    104.46     38.46      0.00
  10                    1.11    108.90     44.73      0.00
  11                    1.75    103.96     40.26      0.00
  12                    0.91     87.95     25.31      0.00
  13                    1.16     83.77     21.87      0.00
  14                    0.54     88.79     26.19      0.00
  15                    1.10     94.50     31.00      0.00
  16                    1.21     88.19     23.89      0.00
  17                    1.27    112.16     46.66      0.00
  18                    2.02     89.48     25.38      0.00
  19                    1.88     93.06     30.16      0.00
  20                    0.93     89.87     27.04      0.00
  21                    0.96     87.87     25.07      0.00
  22                    0.97     92.07     28.17      0.00
  23                    0.86     84.88     20.68      0.00
  24                    0.67     93.84     26.34      0.00
  25                    0.77     86.25     21.85      0.00
  26                    1.69     98.99     35.59      0.00
  27                    1.42     95.18     31.28      0.00
  28                    0.30     99.67     34.02      0.00
  29                    0.62     96.94     32.44      0.00
  30                    0.54     99.29     35.19      0.00


  Page 17    foss_poly_1   foss_ripro_Cl
  Node Results at 0:01 Hrs: (continued)
  ----------------------------------------------------------------------
  Node                Demand      Head  Pressure   Quality
  ID                     LPS         m         m      mg/L
  ----------------------------------------------------------------------
  31                    0.90    117.59     53.19     99.97
  32                    1.03    102.90     38.70      0.00
  33                    0.77    112.27     47.67      0.00
  34                    0.74    114.84     50.14      0.00
  35                    1.16    104.50     39.07      0.00
  36                    0.47    109.40     43.50      0.00
  37                  -33.91    121.00      0.00      0.00 Reservoir
  
  Link Results at 0:01 Hrs:
  ----------------------------------------------------------------------
  Link                  Flow  VelocityUnit Headloss    Status
  ID                     LPS       m/s      m/km
  ----------------------------------------------------------------------
  1                     3.67      1.77     66.42      Open
  2                     1.04      1.25     59.42      Open
  3                    -0.03      0.13      1.95      Open
  4                     0.10      0.48     22.96      Open
  5                     0.03      0.12      1.92      Open
  6                    -0.06      0.30      9.72      Open
  7                    -0.11      0.55     30.24      Open
  8                    -0.32      0.61     20.24      Open
  9                    -1.13      0.86     22.92      Open
  10                   -1.88      0.91     19.31      Open
  11                   -2.27      1.09     27.25      Open
  12                   -2.94      1.42     44.07      Open
  13                   -5.29      1.79     54.91      Open
  14                   24.46      2.37     44.83      Open
  15                   18.76      2.29     47.91      Open
  16                   15.49      1.89     33.60      Open
  17                    3.69      1.78     67.04      Open
  18                    1.74      1.33     51.30      Open
  19                    0.74      1.39     94.37      Open
  20                    0.03      0.14      2.52      Open
  21                   -0.63      1.94    231.30      Open
  22                    1.53      1.83    120.41      Open
  23                    2.47      1.89     98.37      Open
  24                    1.14      1.37     70.43      Open
  25                    1.14      0.87     23.59      Open
  26                   -0.18      0.89     72.07      Open
  27                   -1.14      1.37     70.13      Open
  28                    8.91      2.09     59.69      Open
  29                    7.13      1.68     39.48      Open
  30                    1.30      1.00     30.01      Open
  31                    0.05      0.25      6.76      Open
  32                   -0.54      0.65     17.80      Open
  33                   -1.61      1.23     44.67      Open
  34                   -3.75      1.26     28.99      Open


  Page 18    foss_poly_1   foss_ripro_Cl
  Link Results at 0:01 Hrs: (continued)
  ----------------------------------------------------------------------
  Link                  Flow  VelocityUnit Headloss    Status
  ID                     LPS       m/s      m/km
  ----------------------------------------------------------------------
  35                   -4.60      1.56     42.51      Open
  36                    0.12      0.60     34.51      Open
  37                   -1.09      1.31     64.36      Open
  38                   -0.47      0.89     41.36      Open
  39                   -0.13      0.66     41.67      Open
  40                    1.36      1.63     96.65      Open
  41                    0.09      0.45     20.49      Open
  42                    0.07      0.35     12.84      Open
  43                    1.59      0.77     14.12      Open
  44                    0.74      0.57     10.51      Open
  45                   -0.11      0.54     28.50      Open
  46                    0.17      0.87     69.31      Open
  47                    0.13      0.67     42.48      Open
  48                   -0.55      0.66     18.24      Open
  49                    0.09      0.46     21.14      Open
  50                    0.09      0.42     18.30      Open
  51                   -1.15      1.38     71.26      Open
  52                   -1.97      1.51     64.83      Open
  53                   -3.90      1.88     74.12      Open
  54                    4.80      1.62     45.91      Open
  55                    0.16      0.82     62.46      Open
  56                   -0.88      1.06     43.40      Open
  57                   -1.88      1.43     59.00      Open
  58                   33.91      1.99     24.25      Open
  
  Node Results at 0:01 Hrs:
  ----------------------------------------------------------------------
  Node                Demand      Head  Pressure   Quality
  ID                     LPS         m         m      mg/L
  ----------------------------------------------------------------------
  1                     0.49    120.98     55.83    100.00
  2                     1.04     89.89     25.49      0.00
  3                     1.02     90.13     26.78      0.00
  4                     0.81     82.95     20.45      0.00
  5                     0.63     82.39     21.15      0.00
  6                     0.79     85.66     20.26      0.00
  7                     0.26     89.77     21.87      0.00
  8                     0.58     96.88     30.38      0.00
  9                     0.54    104.46     38.46      0.00
  10                    1.11    108.90     44.73      0.00
  11                    1.75    103.96     40.26      0.00
  12                    0.91     87.95     25.31      0.00
  13                    1.16     83.77     21.87      0.00
  14                    0.54     88.79     26.19      0.00
  15                    1.10     94.50     31.00      0.00
  16                    1.21     88.19     23.89      0.00
  17                    1.27    112.16     46.66      0.00


  Page 19    foss_poly_1   foss_ripro_Cl
  Node Results at 0:01 Hrs: (continued)
  ----------------------------------------------------------------------
  Node                Demand      Head  Pressure   Quality
  ID                     LPS         m         m      mg/L
  ----------------------------------------------------------------------
  18                    2.02     89.48     25.38      0.00
  19                    1.88     93.06     30.16      0.00
  20                    0.93     89.87     27.04      0.00
  21                    0.96     87.87     25.07      0.00
  22                    0.97     92.07     28.17      0.00
  23                    0.86     84.88     20.68      0.00
  24                    0.67     93.84     26.34      0.00
  25                    0.77     86.25     21.85      0.00
  26                    1.69     98.99     35.59      0.00
  27                    1.42     95.18     31.28      0.00
  28                    0.30     99.67     34.02      0.00
  29                    0.62     96.94     32.44      0.00
  30                    0.54     99.29     35.19      0.00
  31                    0.90    117.59     53.19     99.98
  32                    1.03    102.90     38.70      0.00
  33                    0.77    112.27     47.67      0.00
  34                    0.74    114.84     50.14     24.86
  35                    1.16    104.50     39.07      0.00
  36                    0.47    109.40     43.50      0.00
  37                  -33.91    121.00      0.00      0.00 Reservoir
  
  Link Results at 0:01 Hrs:
  ----------------------------------------------------------------------
  Link                  Flow  VelocityUnit Headloss    Status
  ID                     LPS       m/s      m/km
  ----------------------------------------------------------------------
  1                     3.67      1.77     66.42      Open
  2                     1.04      1.25     59.42      Open
  3                    -0.03      0.13      1.95      Open
  4                     0.10      0.48     22.96      Open
  5                     0.03      0.12      1.92      Open
  6                    -0.06      0.30      9.72      Open
  7                    -0.11      0.55     30.24      Open
  8                    -0.32      0.61     20.24      Open
  9                    -1.13      0.86     22.92      Open
  10                   -1.88      0.91     19.31      Open
  11                   -2.27      1.09     27.25      Open
  12                   -2.94      1.42     44.07      Open
  13                   -5.29      1.79     54.91      Open
  14                   24.46      2.37     44.83      Open
  15                   18.76      2.29     47.91      Open
  16                   15.49      1.89     33.60      Open
  17                    3.69      1.78     67.04      Open
  18                    1.74      1.33     51.30      Open
  19                    0.74      1.39     94.37      Open
  20                    0.03      0.14      2.52      Open
  21                   -0.63      1.94    231.30      Open


  Page 20    foss_poly_1   foss_ripro_Cl
  Link Results at 0:01 Hrs: (continued)
  ----------------------------------------------------------------------
  Link                  Flow  VelocityUnit Headloss    Status
  ID                     LPS       m/s      m/km
  ----------------------------------------------------------------------
  22                    1.53      1.83    120.41      Open
  23                    2.47      1.89     98.37      Open
  24                    1.14      1.37     70.43      Open
  25                    1.14      0.87     23.59      Open
  26                   -0.18      0.89     72.07      Open
  27                   -1.14      1.37     70.13      Open
  28                    8.91      2.09     59.69      Open
  29                    7.13      1.68     39.48      Open
  30                    1.30      1.00     30.01      Open
  31                    0.05      0.25      6.76      Open
  32                   -0.54      0.65     17.80      Open
  33                   -1.61      1.23     44.67      Open
  34                   -3.75      1.26     28.99      Open
  35                   -4.60      1.56     42.51      Open
  36                    0.12      0.60     34.51      Open
  37                   -1.09      1.31     64.36      Open
  38                   -0.47      0.89     41.36      Open
  39                   -0.13      0.66     41.67      Open
  40                    1.36      1.63     96.65      Open
  41                    0.09      0.45     20.49      Open
  42                    0.07      0.35     12.84      Open
  43                    1.59      0.77     14.12      Open
  44                    0.74      0.57     10.51      Open
  45                   -0.11      0.54     28.50      Open
  46                    0.17      0.87     69.31      Open
  47                    0.13      0.67     42.48      Open
  48                   -0.55      0.66     18.24      Open
  49                    0.09      0.46     21.14      Open
  50                    0.09      0.42     18.30      Open
  51                   -1.15      1.38     71.26      Open
  52                   -1.97      1.51     64.83      Open
  53                   -3.90      1.88     74.12      Open
  54                    4.80      1.62     45.91      Open
  55                    0.16      0.82     62.46      Open
  56                   -0.88      1.06     43.40      Open
  57                   -1.88      1.43     59.00      Open
  58                   33.91      1.99     24.25      Open
  


  Page 21    foss_poly_1   foss_ripro_Cl
  Node Results at 0:01 Hrs:
  ----------------------------------------------------------------------
  Node                Demand      Head  Pressure   Quality
  ID                     LPS         m         m      mg/L
  ----------------------------------------------------------------------
  1                     0.49    120.98     55.83    100.00
  2                     1.04     89.89     25.49      0.00
  3                     1.02     90.13     26.78      0.00
  4                     0.81     82.95     20.45      0.00
  5                     0.63     82.39     21.15      0.00
  6                     0.79     85.66     20.26      0.00
  7                     0.26     89.77     21.87      0.00
  8                     0.58     96.88     30.38      0.00
  9                     0.54    104.46     38.46      0.00
  10                    1.11    108.90     44.73      0.00
  11                    1.75    103.96     40.26      0.00
  12                    0.91     87.95     25.31      0.00
  13                    1.16     83.77     21.87      0.00
  14                    0.54     88.79     26.19      0.00
  15                    1.10     94.50     31.00      0.00
  16                    1.21     88.19     23.89      0.00
  17                    1.27    112.16     46.66     49.57
  18                    2.02     89.48     25.38      0.00
  19                    1.88     93.06     30.16      0.00
  20                    0.93     89.87     27.04      0.00
  21                    0.96     87.87     25.07      0.00
  22                    0.97     92.07     28.17      0.00
  23                    0.86     84.88     20.68      0.00
  24                    0.67     93.84     26.34      0.00
  25                    0.77     86.25     21.85      0.00
  26                    1.69     98.99     35.59      0.00
  27                    1.42     95.18     31.28      0.00
  28                    0.30     99.67     34.02      0.00
  29                    0.62     96.94     32.44      0.00
  30                    0.54     99.29     35.19      0.00
  31                    0.90    117.59     53.19     99.98
  32                    1.03    102.90     38.70      0.00
  33                    0.77    112.27     47.67      3.71
  34                    0.74    114.84     50.14     87.43
  35                    1.16    104.50     39.07      0.00
  36                    0.47    109.40     43.50      0.00
  37                  -33.91    121.00      0.00      0.00 Reservoir
  


  Page 22    foss_poly_1   foss_ripro_Cl
  Link Results at 0:01 Hrs:
  ----------------------------------------------------------------------
  Link                  Flow  VelocityUnit Headloss    Status
  ID                     LPS       m/s      m/km
  ----------------------------------------------------------------------
  1                     3.67      1.77     66.42      Open
  2                     1.04      1.25     59.42      Open
  3                    -0.03      0.13      1.95      Open
  4                     0.10      0.48     22.96      Open
  5                     0.03      0.12      1.92      Open
  6                    -0.06      0.30      9.72      Open
  7                    -0.11      0.55     30.24      Open
  8                    -0.32      0.61     20.24      Open
  9                    -1.13      0.86     22.92      Open
  10                   -1.88      0.91     19.31      Open
  11                   -2.27      1.09     27.25      Open
  12                   -2.94      1.42     44.07      Open
  13                   -5.29      1.79     54.91      Open
  14                   24.46      2.37     44.83      Open
  15                   18.76      2.29     47.91      Open
  16                   15.49      1.89     33.60      Open
  17                    3.69      1.78     67.04      Open
  18                    1.74      1.33     51.30      Open
  19                    0.74      1.39     94.37      Open
  20                    0.03      0.14      2.52      Open
  21                   -0.63      1.94    231.30      Open
  22                    1.53      1.83    120.41      Open
  23                    2.47      1.89     98.37      Open
  24                    1.14      1.37     70.43      Open
  25                    1.14      0.87     23.59      Open
  26                   -0.18      0.89     72.07      Open
  27                   -1.14      1.37     70.13      Open
  28                    8.91      2.09     59.69      Open
  29                    7.13      1.68     39.48      Open
  30                    1.30      1.00     30.01      Open
  31                    0.05      0.25      6.76      Open
  32                   -0.54      0.65     17.80      Open
  33                   -1.61      1.23     44.67      Open
  34                   -3.75      1.26     28.99      Open
  35                   -4.60      1.56     42.51      Open
  36                    0.12      0.60     34.51      Open
  37                   -1.09      1.31     64.36      Open
  38                   -0.47      0.89     41.36      Open
  39                   -0.13      0.66     41.67      Open
  40                    1.36      1.63     96.65      Open
  41                    0.09      0.45     20.49      Open
  42                    0.07      0.35     12.84      Open
  43                    1.59      0.77     14.12      Open
  44                    0.74      0.57     10.51      Open
  45                   -0.11      0.54     28.50      Open
  46                    0.17      0.87     69.31      Open
  47                    0.13      0.67     42.48      Open


  Page 23    foss_poly_1   foss_ripro_Cl
  Link Results at 0:01 Hrs: (continued)
  ----------------------------------------------------------------------
  Link                  Flow  VelocityUnit Headloss    Status
  ID                     LPS       m/s      m/km
  ----------------------------------------------------------------------
  48                   -0.55      0.66     18.24      Open
  49                    0.09      0.46     21.14      Open
  50                    0.09      0.42     18.30      Open
  51                   -1.15      1.38     71.26      Open
  52                   -1.97      1.51     64.83      Open
  53                   -3.90      1.88     74.12      Open
  54                    4.80      1.62     45.91      Open
  55                    0.16      0.82     62.46      Open
  56                   -0.88      1.06     43.40      Open
  57                   -1.88      1.43     59.00      Open
  58                   33.91      1.99     24.25      Open
  
  Node Results at 0:01 Hrs:
  ----------------------------------------------------------------------
  Node                Demand      Head  Pressure   Quality
  ID                     LPS         m         m      mg/L
  ----------------------------------------------------------------------
  1                     0.49    120.98     55.83    100.00
  2                     1.04     89.89     25.49      0.00
  3                     1.02     90.13     26.78      0.00
  4                     0.81     82.95     20.45      0.00
  5                     0.63     82.39     21.15      0.00
  6                     0.79     85.66     20.26      0.00
  7                     0.26     89.77     21.87      0.00
  8                     0.58     96.88     30.38      0.00
  9                     0.54    104.46     38.46      0.00
  10                    1.11    108.90     44.73      0.00
  11                    1.75    103.96     40.26      0.00
  12                    0.91     87.95     25.31      0.00
  13                    1.16     83.77     21.87      0.00
  14                    0.54     88.79     26.19      0.00
  15                    1.10     94.50     31.00      0.00
  16                    1.21     88.19     23.89      0.00
  17                    1.27    112.16     46.66     99.96
  18                    2.02     89.48     25.38      0.00
  19                    1.88     93.06     30.16      0.00
  20                    0.93     89.87     27.04      0.00
  21                    0.96     87.87     25.07      0.00
  22                    0.97     92.07     28.17      0.00
  23                    0.86     84.88     20.68      0.00
  24                    0.67     93.84     26.34      0.00
  25                    0.77     86.25     21.85      0.00
  26                    1.69     98.99     35.59      0.00
  27                    1.42     95.18     31.28      0.00
  28                    0.30     99.67     34.02      0.00
  29                    0.62     96.94     32.44      0.00
  30                    0.54     99.29     35.19      0.00


  Page 24    foss_poly_1   foss_ripro_Cl
  Node Results at 0:01 Hrs: (continued)
  ----------------------------------------------------------------------
  Node                Demand      Head  Pressure   Quality
  ID                     LPS         m         m      mg/L
  ----------------------------------------------------------------------
  31                    0.90    117.59     53.19     99.97
  32                    1.03    102.90     38.70      0.00
  33                    0.77    112.27     47.67     34.20
  34                    0.74    114.84     50.14     99.96
  35                    1.16    104.50     39.07      0.00
  36                    0.47    109.40     43.50      0.00
  37                  -33.91    121.00      0.00      0.00 Reservoir
  
  Link Results at 0:01 Hrs:
  ----------------------------------------------------------------------
  Link                  Flow  VelocityUnit Headloss    Status
  ID                     LPS       m/s      m/km
  ----------------------------------------------------------------------
  1                     3.67      1.77     66.42      Open
  2                     1.04      1.25     59.42      Open
  3                    -0.03      0.13      1.95      Open
  4                     0.10      0.48     22.96      Open
  5                     0.03      0.12      1.92      Open
  6                    -0.06      0.30      9.72      Open
  7                    -0.11      0.55     30.24      Open
  8                    -0.32      0.61     20.24      Open
  9                    -1.13      0.86     22.92      Open
  10                   -1.88      0.91     19.31      Open
  11                   -2.27      1.09     27.25      Open
  12                   -2.94      1.42     44.07      Open
  13                   -5.29      1.79     54.91      Open
  14                   24.46      2.37     44.83      Open
  15                   18.76      2.29     47.91      Open
  16                   15.49      1.89     33.60      Open
  17                    3.69      1.78     67.04      Open
  18                    1.74      1.33     51.30      Open
  19                    0.74      1.39     94.37      Open
  20                    0.03      0.14      2.52      Open
  21                   -0.63      1.94    231.30      Open
  22                    1.53      1.83    120.41      Open
  23                    2.47      1.89     98.37      Open
  24                    1.14      1.37     70.43      Open
  25                    1.14      0.87     23.59      Open
  26                   -0.18      0.89     72.07      Open
  27                   -1.14      1.37     70.13      Open
  28                    8.91      2.09     59.69      Open
  29                    7.13      1.68     39.48      Open
  30                    1.30      1.00     30.01      Open
  31                    0.05      0.25      6.76      Open
  32                   -0.54      0.65     17.80      Open
  33                   -1.61      1.23     44.67      Open
  34                   -3.75      1.26     28.99      Open


  Page 25    foss_poly_1   foss_ripro_Cl
  Link Results at 0:01 Hrs: (continued)
  ----------------------------------------------------------------------
  Link                  Flow  VelocityUnit Headloss    Status
  ID                     LPS       m/s      m/km
  ----------------------------------------------------------------------
  35                   -4.60      1.56     42.51      Open
  36                    0.12      0.60     34.51      Open
  37                   -1.09      1.31     64.36      Open
  38                   -0.47      0.89     41.36      Open
  39                   -0.13      0.66     41.67      Open
  40                    1.36      1.63     96.65      Open
  41                    0.09      0.45     20.49      Open
  42                    0.07      0.35     12.84      Open
  43                    1.59      0.77     14.12      Open
  44                    0.74      0.57     10.51      Open
  45                   -0.11      0.54     28.50      Open
  46                    0.17      0.87     69.31      Open
  47                    0.13      0.67     42.48      Open
  48                   -0.55      0.66     18.24      Open
  49                    0.09      0.46     21.14      Open
  50                    0.09      0.42     18.30      Open
  51                   -1.15      1.38     71.26      Open
  52                   -1.97      1.51     64.83      Open
  53                   -3.90      1.88     74.12      Open
  54                    4.80      1.62     45.91      Open
  55                    0.16      0.82     62.46      Open
  56                   -0.88      1.06     43.40      Open
  57                   -1.88      1.43     59.00      Open
  58                   33.91      1.99     24.25      Open
  
  Node Results at 0:01 Hrs:
  ----------------------------------------------------------------------
  Node                Demand      Head  Pressure   Quality
  ID                     LPS         m         m      mg/L
  ----------------------------------------------------------------------
  1                     0.49    120.98     55.83    100.00
  2                     1.04     89.89     25.49      0.00
  3                     1.02     90.13     26.78      0.00
  4                     0.81     82.95     20.45      0.00
  5                     0.63     82.39     21.15      0.00
  6                     0.79     85.66     20.26      0.00
  7                     0.26     89.77     21.87      0.00
  8                     0.58     96.88     30.38      0.00
  9                     0.54    104.46     38.46      0.00
  10                    1.11    108.90     44.73      0.00
  11                    1.75    103.96     40.26      0.00
  12                    0.91     87.95     25.31      0.00
  13                    1.16     83.77     21.87      0.00
  14                    0.54     88.79     26.19      0.00
  15                    1.10     94.50     31.00      0.00
  16                    1.21     88.19     23.89      0.00
  17                    1.27    112.16     46.66     99.95


  Page 26    foss_poly_1   foss_ripro_Cl
  Node Results at 0:01 Hrs: (continued)
  ----------------------------------------------------------------------
  Node                Demand      Head  Pressure   Quality
  ID                     LPS         m         m      mg/L
  ----------------------------------------------------------------------
  18                    2.02     89.48     25.38      0.00
  19                    1.88     93.06     30.16      0.00
  20                    0.93     89.87     27.04      0.00
  21                    0.96     87.87     25.07      0.00
  22                    0.97     92.07     28.17      0.00
  23                    0.86     84.88     20.68      0.00
  24                    0.67     93.84     26.34      0.00
  25                    0.77     86.25     21.85      0.00
  26                    1.69     98.99     35.59      0.00
  27                    1.42     95.18     31.28      0.00
  28                    0.30     99.67     34.02      0.00
  29                    0.62     96.94     32.44      0.00
  30                    0.54     99.29     35.19      0.00
  31                    0.90    117.59     53.19     99.98
  32                    1.03    102.90     38.70      0.00
  33                    0.77    112.27     47.67     89.29
  34                    0.74    114.84     50.14     99.95
  35                    1.16    104.50     39.07      0.00
  36                    0.47    109.40     43.50      0.00
  37                  -33.91    121.00      0.00      0.00 Reservoir
  
  Link Results at 0:01 Hrs:
  ----------------------------------------------------------------------
  Link                  Flow  VelocityUnit Headloss    Status
  ID                     LPS       m/s      m/km
  ----------------------------------------------------------------------
  1                     3.67      1.77     66.42      Open
  2                     1.04      1.25     59.42      Open
  3                    -0.03      0.13      1.95      Open
  4                     0.10      0.48     22.96      Open
  5                     0.03      0.12      1.92      Open
  6                    -0.06      0.30      9.72      Open
  7                    -0.11      0.55     30.24      Open
  8                    -0.32      0.61     20.24      Open
  9                    -1.13      0.86     22.92      Open
  10                   -1.88      0.91     19.31      Open
  11                   -2.27      1.09     27.25      Open
  12                   -2.94      1.42     44.07      Open
  13                   -5.29      1.79     54.91      Open
  14                   24.46      2.37     44.83      Open
  15                   18.76      2.29     47.91      Open
  16                   15.49      1.89     33.60      Open
  17                    3.69      1.78     67.04      Open
  18                    1.74      1.33     51.30      Open
  19                    0.74      1.39     94.37      Open
  20                    0.03      0.14      2.52      Open
  21                   -0.63      1.94    231.30      Open


  Page 27    foss_poly_1   foss_ripro_Cl
  Link Results at 0:01 Hrs: (continued)
  ----------------------------------------------------------------------
  Link                  Flow  VelocityUnit Headloss    Status
  ID                     LPS       m/s      m/km
  ----------------------------------------------------------------------
  22                    1.53      1.83    120.41      Open
  23                    2.47      1.89     98.37      Open
  24                    1.14      1.37     70.43      Open
  25                    1.14      0.87     23.59      Open
  26                   -0.18      0.89     72.07      Open
  27                   -1.14      1.37     70.13      Open
  28                    8.91      2.09     59.69      Open
  29                    7.13      1.68     39.48      Open
  30                    1.30      1.00     30.01      Open
  31                    0.05      0.25      6.76      Open
[...]
  9                     0.54    104.46     38.46     99.87
  10                    1.11    108.90     44.73     99.93
  11                    1.75    103.96     40.26     99.88
  12                    0.91     87.95     25.31     99.78
  13                    1.16     83.77     21.87     99.67
  14                    0.54     88.79     26.19     99.74
  15                    1.10     94.50     31.00     99.82
  16                    1.21     88.19     23.89     99.77
  17                    1.27    112.16     46.66     99.95


  Page 838   foss_poly_1   foss_ripro_Cl
  Node Results at 0:59 Hrs: (continued)
  ----------------------------------------------------------------------
  Node                Demand      Head  Pressure   Quality
  ID                     LPS         m         m      mg/L
  ----------------------------------------------------------------------
  18                    2.02     89.48     25.38     99.86
  19                    1.88     93.06     30.16     99.82
  20                    0.93     89.87     27.04     99.75
  21                    0.96     87.87     25.07     99.68
  22                    0.97     92.07     28.17     99.76
  23                    0.86     84.88     20.68     99.60
  24                    0.67     93.84     26.34     99.57
  25                    0.77     86.25     21.85     99.69
  26                    1.69     98.99     35.59     99.85
  27                    1.42     95.18     31.28     99.86
  28                    0.30     99.67     34.02     99.78
  29                    0.62     96.94     32.44     99.81
  30                    0.54     99.29     35.19     99.81
  31                    0.90    117.59     53.19     99.98
  32                    1.03    102.90     38.70     99.89
  33                    0.77    112.27     47.67     99.95
  34                    0.74    114.84     50.14     99.95
  35                    1.16    104.50     39.07     99.89
  36                    0.47    109.40     43.50     99.93
  37                  -33.91    121.00      0.00      0.00 Reservoir
  
  Link Results at 0:59 Hrs:
  ----------------------------------------------------------------------
  Link                  Flow  VelocityUnit Headloss    Status
  ID                     LPS       m/s      m/km
  ----------------------------------------------------------------------
  1                     3.67      1.77     66.42      Open
  2                     1.04      1.25     59.42      Open
  3                    -0.03      0.13      1.95      Open
  4                     0.10      0.48     22.96      Open
  5                     0.03      0.12      1.92      Open
  6                    -0.06      0.30      9.72      Open
  7                    -0.11      0.55     30.24      Open
  8                    -0.32      0.61     20.24      Open
  9                    -1.13      0.86     22.92      Open
  10                   -1.88      0.91     19.31      Open
  11                   -2.27      1.09     27.25      Open
  12                   -2.94      1.42     44.07      Open
  13                   -5.29      1.79     54.91      Open
  14                   24.46      2.37     44.83      Open
  15                   18.76      2.29     47.91      Open
  16                   15.49      1.89     33.60      Open
  17                    3.69      1.78     67.04      Open
  18                    1.74      1.33     51.30      Open
  19                    0.74      1.39     94.37      Open
  20                    0.03      0.14      2.52      Open
  21                   -0.63      1.94    231.30      Open


  Page 839   foss_poly_1   foss_ripro_Cl
  Link Results at 0:59 Hrs: (continued)
  ----------------------------------------------------------------------
  Link                  Flow  VelocityUnit Headloss    Status
  ID                     LPS       m/s      m/km
  ----------------------------------------------------------------------
  22                    1.53      1.83    120.41      Open
  23                    2.47      1.89     98.37      Open
  24                    1.14      1.37     70.43      Open
  25                    1.14      0.87     23.59      Open
  26                   -0.18      0.89     72.07      Open
  27                   -1.14      1.37     70.13      Open
  28                    8.91      2.09     59.69      Open
  29                    7.13      1.68     39.48      Open
  30                    1.30      1.00     30.01      Open
  31                    0.05      0.25      6.76      Open
  32                   -0.54      0.65     17.80      Open
  33                   -1.61      1.23     44.67      Open
  34                   -3.75      1.26     28.99      Open
  35                   -4.60      1.56     42.51      Open
  36                    0.12      0.60     34.51      Open
  37                   -1.09      1.31     64.36      Open
  38                   -0.47      0.89     41.36      Open
  39                   -0.13      0.66     41.67      Open
  40                    1.36      1.63     96.65      Open
  41                    0.09      0.45     20.49      Open
  42                    0.07      0.35     12.84      Open
  43                    1.59      0.77     14.12      Open
  44                    0.74      0.57     10.51      Open
  45                   -0.11      0.54     28.50      Open
  46                    0.17      0.87     69.31      Open
  47                    0.13      0.67     42.48      Open
  48                   -0.55      0.66     18.24      Open
  49                    0.09      0.46     21.14      Open
  50                    0.09      0.42     18.30      Open
  51                   -1.15      1.38     71.26      Open
  52                   -1.97      1.51     64.83      Open
  53                   -3.90      1.88     74.12      Open
  54                    4.80      1.62     45.91      Open
  55                    0.16      0.82     62.46      Open
  56                   -0.88      1.06     43.40      Open
  57                   -1.88      1.43     59.00      Open
  58                   33.91      1.99     24.25      Open
  


  Page 840   foss_poly_1   foss_ripro_Cl
  Node Results at 0:59 Hrs:
  ----------------------------------------------------------------------
  Node                Demand      Head  Pressure   Quality
  ID                     LPS         m         m      mg/L
  ----------------------------------------------------------------------
  1                     0.49    120.98     55.83    100.00
  2                     1.04     89.89     25.49     99.74
  3                     1.02     90.13     26.78     99.79
  4                     0.81     82.95     20.45     99.71
  5                     0.63     82.39     21.15     99.46
  6                     0.79     85.66     20.26     99.40
  7                     0.26     89.77     21.87     99.30
  8                     0.58     96.88     30.38     99.68
  9                     0.54    104.46     38.46     99.87
  10                    1.11    108.90     44.73     99.92
  11                    1.75    103.96     40.26     99.88
  12                    0.91     87.95     25.31     99.77
  13                    1.16     83.77     21.87     99.68
  14                    0.54     88.79     26.19     99.75
  15                    1.10     94.50     31.00     99.81
  16                    1.21     88.19     23.89     99.77
  17                    1.27    112.16     46.66     99.95
  18                    2.02     89.48     25.38     99.86
  19                    1.88     93.06     30.16     99.83
  20                    0.93     89.87     27.04     99.77
  21                    0.96     87.87     25.07     99.68
  22                    0.97     92.07     28.17     99.75
  23                    0.86     84.88     20.68     99.59
  24                    0.67     93.84     26.34     99.58
  25                    0.77     86.25     21.85     99.69
  26                    1.69     98.99     35.59     99.85
  27                    1.42     95.18     31.28     99.85
  28                    0.30     99.67     34.02     99.77
  29                    0.62     96.94     32.44     99.81
  30                    0.54     99.29     35.19     99.80
  31                    0.90    117.59     53.19     99.98
  32                    1.03    102.90     38.70     99.90
  33                    0.77    112.27     47.67     99.94
  34                    0.74    114.84     50.14     99.96
  35                    1.16    104.50     39.07     99.88
  36                    0.47    109.40     43.50     99.92
  37                  -33.91    121.00      0.00      0.00 Reservoir
  


  Page 841   foss_poly_1   foss_ripro_Cl
  Link Results at 0:59 Hrs:
  ----------------------------------------------------------------------
  Link                  Flow  VelocityUnit Headloss    Status
  ID                     LPS       m/s      m/km
  ----------------------------------------------------------------------
  1                     3.67      1.77     66.42      Open
  2                     1.04      1.25     59.42      Open
  3                    -0.03      0.13      1.95      Open
  4                     0.10      0.48     22.96      Open
  5                     0.03      0.12      1.92      Open
  6                    -0.06      0.30      9.72      Open
  7                    -0.11      0.55     30.24      Open
  8                    -0.32      0.61     20.24      Open
  9                    -1.13      0.86     22.92      Open
  10                   -1.88      0.91     19.31      Open
  11                   -2.27      1.09     27.25      Open
  12                   -2.94      1.42     44.07      Open
  13                   -5.29      1.79     54.91      Open
  14                   24.46      2.37     44.83      Open
  15                   18.76      2.29     47.91      Open
  16                   15.49      1.89     33.60      Open
  17                    3.69      1.78     67.04      Open
  18                    1.74      1.33     51.30      Open
  19                    0.74      1.39     94.37      Open
  20                    0.03      0.14      2.52      Open
  21                   -0.63      1.94    231.30      Open
  22                    1.53      1.83    120.41      Open
  23                    2.47      1.89     98.37      Open
  24                    1.14      1.37     70.43      Open
  25                    1.14      0.87     23.59      Open
  26                   -0.18      0.89     72.07      Open
  27                   -1.14      1.37     70.13      Open
  28                    8.91      2.09     59.69      Open
  29                    7.13      1.68     39.48      Open
  30                    1.30      1.00     30.01      Open
  31                    0.05      0.25      6.76      Open
  32                   -0.54      0.65     17.80      Open
  33                   -1.61      1.23     44.67      Open
  34                   -3.75      1.26     28.99      Open
  35                   -4.60      1.56     42.51      Open
  36                    0.12      0.60     34.51      Open
  37                   -1.09      1.31     64.36      Open
  38                   -0.47      0.89     41.36      Open
  39                   -0.13      0.66     41.67      Open
  40                    1.36      1.63     96.65      Open
  41                    0.09      0.45     20.49      Open
  42                    0.07      0.35     12.84      Open
  43                    1.59      0.77     14.12      Open
  44                    0.74      0.57     10.51      Open
  45                   -0.11      0.54     28.50      Open
  46                    0.17      0.87     69.31      Open
  47                    0.13      0.67     42.48      Open


  Page 842   foss_poly_1   foss_ripro_Cl
  Link Results at 0:59 Hrs: (continued)
  ----------------------------------------------------------------------
  Link                  Flow  VelocityUnit Headloss    Status
  ID                     LPS       m/s      m/km
  ----------------------------------------------------------------------
  48                   -0.55      0.66     18.24      Open
  49                    0.09      0.46     21.14      Open
  50                    0.09      0.42     18.30      Open
  51                   -1.15      1.38     71.26      Open
  52                   -1.97      1.51     64.83      Open
  53                   -3.90      1.88     74.12      Open
  54                    4.80      1.62     45.91      Open
  55                    0.16      0.82     62.46      Open
  56                   -0.88      1.06     43.40      Open
  57                   -1.88      1.43     59.00      Open
  58                   33.91      1.99     24.25      Open
  
  Node Results at 1:00 Hrs:
  ----------------------------------------------------------------------
  Node                Demand      Head  Pressure   Quality
  ID                     LPS         m         m      mg/L
  ----------------------------------------------------------------------
  1                     0.49    120.98     55.83    100.00
  2                     1.04     89.89     25.49     99.75
  3                     1.02     90.13     26.78     99.78
  4                     0.81     82.95     20.45     99.70
  5                     0.63     82.39     21.15     99.46
  6                     0.79     85.66     20.26     99.41
  7                     0.26     89.77     21.87     99.30
  8                     0.58     96.88     30.38     99.67
  9                     0.54    104.46     38.46     99.88
  10                    1.11    108.90     44.73     99.94
  11                    1.75    103.96     40.26     99.88
  12                    0.91     87.95     25.31     99.77
  13                    1.16     83.77     21.87     99.67
  14                    0.54     88.79     26.19     99.74
  15                    1.10     94.50     31.00     99.81
  16                    1.21     88.19     23.89     99.77
  17                    1.27    112.16     46.66     99.96
  18                    2.02     89.48     25.38     99.86
  19                    1.88     93.06     30.16     99.82
  20                    0.93     89.87     27.04     99.76
  21                    0.96     87.87     25.07     99.68
  22                    0.97     92.07     28.17     99.76
  23                    0.86     84.88     20.68     99.60
  24                    0.67     93.84     26.34     99.58
  25                    0.77     86.25     21.85     99.69
  26                    1.69     98.99     35.59     99.86
  27                    1.42     95.18     31.28     99.86
  28                    0.30     99.67     34.02     99.77
  29                    0.62     96.94     32.44     99.81
  30                    0.54     99.29     35.19     99.80


  Page 843   foss_poly_1   foss_ripro_Cl
  Node Results at 1:00 Hrs: (continued)
  ----------------------------------------------------------------------
  Node                Demand      Head  Pressure   Quality
  ID                     LPS         m         m      mg/L
  ----------------------------------------------------------------------
  31                    0.90    117.59     53.19     99.97
  32                    1.03    102.90     38.70     99.90
  33                    0.77    112.27     47.67     99.94
  34                    0.74    114.84     50.14     99.95
  35                    1.16    104.50     39.07     99.88
  36                    0.47    109.40     43.50     99.92
  37                  -33.91    121.00      0.00      0.00 Reservoir
  
  Link Results at 1:00 Hrs:
  ----------------------------------------------------------------------
  Link                  Flow  VelocityUnit Headloss    Status
  ID                     LPS       m/s      m/km
  ----------------------------------------------------------------------
  1                     3.67      1.77     66.42      Open
  2                     1.04      1.25     59.42      Open
  3                    -0.03      0.13      1.95      Open
  4                     0.10      0.48     22.96      Open
  5                     0.03      0.12      1.92      Open
  6                    -0.06      0.30      9.72      Open
  7                    -0.11      0.55     30.24      Open
  8                    -0.32      0.61     20.24      Open
  9                    -1.13      0.86     22.92      Open
  10                   -1.88      0.91     19.31      Open
  11                   -2.27      1.09     27.25      Open
  12                   -2.94      1.42     44.07      Open
  13                   -5.29      1.79     54.91      Open
  14                   24.46      2.37     44.83      Open
  15                   18.76      2.29     47.91      Open
  16                   15.49      1.89     33.60      Open
  17                    3.69      1.78     67.04      Open
  18                    1.74      1.33     51.30      Open
  19                    0.74      1.39     94.37      Open
  20                    0.03      0.14      2.52      Open
  21                   -0.63      1.94    231.30      Open
  22                    1.53      1.83    120.41      Open
  23                    2.47      1.89     98.37      Open
  24                    1.14      1.37     70.43      Open
  25                    1.14      0.87     23.59      Open
  26                   -0.18      0.89     72.07      Open
  27                   -1.14      1.37     70.13      Open
  28                    8.91      2.09     59.69      Open
  29                    7.13      1.68     39.48      Open
  30                    1.30      1.00     30.01      Open
  31                    0.05      0.25      6.76      Open
  32                   -0.54      0.65     17.80      Open
  33                   -1.61      1.23     44.67      Open
  34                   -3.75      1.26     28.99      Open


  Page 844   foss_poly_1   foss_ripro_Cl
  Link Results at 1:00 Hrs: (continued)
  ----------------------------------------------------------------------
  Link                  Flow  VelocityUnit Headloss    Status
  ID                     LPS       m/s      m/km
  ----------------------------------------------------------------------
  35                   -4.60      1.56     42.51      Open
  36                    0.12      0.60     34.51      Open
  37                   -1.09      1.31     64.36      Open
  38                   -0.47      0.89     41.36      Open
  39                   -0.13      0.66     41.67      Open
  40                    1.36      1.63     96.65      Open
  41                    0.09      0.45     20.49      Open
  42                    0.07      0.35     12.84      Open
  43                    1.59      0.77     14.12      Open
  44                    0.74      0.57     10.51      Open
  45                   -0.11      0.54     28.50      Open
  46                    0.17      0.87     69.31      Open
  47                    0.13      0.67     42.48      Open
  48                   -0.55      0.66     18.24      Open
  49                    0.09      0.46     21.14      Open
  50                    0.09      0.42     18.30      Open
  51                   -1.15      1.38     71.26      Open
  52                   -1.97      1.51     64.83      Open
  53                   -3.90      1.88     74.12      Open
  54                    4.80      1.62     45.91      Open
  55                    0.16      0.82     62.46      Open
  56                   -0.88      1.06     43.40      Open
  57                   -1.88      1.43     59.00      Open
  58                   33.91      1.99     24.25      Open
  
