  Page 1                                             28/09/2021 17:37:33
  **********************************************************************
  *                             E P A N E T                            *
  *                     Hydraulic and Water Quality                    *
  *                     Analysis for Pipe Networks                     *
  *                           Version 2.0                              *
  **********************************************************************
  
  Input File: 1LOOP_net.net
  
  
  
  Link - Node Table:
  ----------------------------------------------------------------------
  Link           Start          End                Length  Diameter
  ID             Node           Node                    m        mm
  ----------------------------------------------------------------------
  1              0              1                     250      51.4
  4              1              4                     500      32.6
  2              1              2                     500      40.8
  5              2              4                   707.1        26
  3              2              3                  353.55      32.6
  
  Node Results at 0:00 Hrs:
  ----------------------------------------------------------------------
  Node                Demand      Head  Pressure   Quality
  ID                     LPS         m         m     hours
  ----------------------------------------------------------------------
  1                     0.60    131.54     31.54      0.00
  2                     0.25    121.48     26.48      0.00
  3                     0.50    116.10     24.10      0.00
  4                     1.20    108.94     19.94      0.00
  0                    -2.55    140.00      0.00    100.00 Reservoir
  
  Link Results at 0:00 Hrs:
  ----------------------------------------------------------------------
  Link                  Flow  VelocityUnit Headloss    Status
  ID                     LPS       m/s      m/km
  ----------------------------------------------------------------------
  1                     2.55      1.23     33.82      Open
  4                     0.90      1.08     45.20      Open
  2                     1.05      0.80     20.13      Open
  5                     0.30      0.56     17.73      Open
  3                     0.50      0.60     15.21      Open
  


  Page 2                                                                
  Node Results at 0:10 Hrs:
  ----------------------------------------------------------------------
  Node                Demand      Head  Pressure   Quality
  ID                     LPS         m         m     hours
  ----------------------------------------------------------------------
  1                     0.60    131.54     31.54    100.06
  2                     0.25    121.48     26.48      0.17
  3                     0.50    116.10     24.10      0.17
  4                     1.20    108.94     19.94      0.17
  0                    -2.55    140.00      0.00    100.00 Reservoir
  
  Link Results at 0:10 Hrs:
  ----------------------------------------------------------------------
  Link                  Flow  VelocityUnit Headloss    Status
  ID                     LPS       m/s      m/km
  ----------------------------------------------------------------------
  1                     2.55      1.23     33.82      Open
  4                     0.90      1.08     45.20      Open
  2                     1.05      0.80     20.13      Open
  5                     0.30      0.56     17.73      Open
  3                     0.50      0.60     15.21      Open
  
  Node Results at 0:20 Hrs:
  ----------------------------------------------------------------------
  Node                Demand      Head  Pressure   Quality
  ID                     LPS         m         m     hours
  ----------------------------------------------------------------------
  1                     0.60    131.54     31.54    100.06
  2                     0.25    121.48     26.48    100.23
  3                     0.50    116.10     24.10      0.33
  4                     1.20    108.94     19.94     75.25
  0                    -2.55    140.00      0.00    100.00 Reservoir
  
  Link Results at 0:20 Hrs:
  ----------------------------------------------------------------------
  Link                  Flow  VelocityUnit Headloss    Status
  ID                     LPS       m/s      m/km
  ----------------------------------------------------------------------
  1                     2.55      1.23     33.82      Open
  4                     0.90      1.08     45.20      Open
  2                     1.05      0.80     20.13      Open
  5                     0.30      0.56     17.73      Open
  3                     0.50      0.60     15.21      Open
  


  Page 3                                                                
  Node Results at 0:30 Hrs:
  ----------------------------------------------------------------------
  Node                Demand      Head  Pressure   Quality
  ID                     LPS         m         m     hours
  ----------------------------------------------------------------------
  1                     0.60    131.54     31.54    100.06
  2                     0.25    121.48     26.48    100.23
  3                     0.50    116.10     24.10    100.39
  4                     1.20    108.94     19.94     75.30
  0                    -2.55    140.00      0.00    100.00 Reservoir
  
  Link Results at 0:30 Hrs:
  ----------------------------------------------------------------------
  Link                  Flow  VelocityUnit Headloss    Status
  ID                     LPS       m/s      m/km
  ----------------------------------------------------------------------
  1                     2.55      1.23     33.82      Open
  4                     0.90      1.08     45.20      Open
  2                     1.05      0.80     20.13      Open
  5                     0.30      0.56     17.73      Open
  3                     0.50      0.60     15.21      Open
  
  Node Results at 0:40 Hrs:
  ----------------------------------------------------------------------
  Node                Demand      Head  Pressure   Quality
  ID                     LPS         m         m     hours
  ----------------------------------------------------------------------
  1                     0.60    131.54     31.54    100.06
  2                     0.25    121.48     26.48    100.23
  3                     0.50    116.10     24.10    100.39
  4                     1.20    108.94     19.94    100.28
  0                    -2.55    140.00      0.00    100.00 Reservoir
  
  Link Results at 0:40 Hrs:
  ----------------------------------------------------------------------
  Link                  Flow  VelocityUnit Headloss    Status
  ID                     LPS       m/s      m/km
  ----------------------------------------------------------------------
  1                     2.55      1.23     33.82      Open
  4                     0.90      1.08     45.20      Open
  2                     1.05      0.80     20.13      Open
  5                     0.30      0.56     17.73      Open
  3                     0.50      0.60     15.21      Open
  


  Page 4                                                                
  Node Results at 0:50 Hrs:
  ----------------------------------------------------------------------
  Node                Demand      Head  Pressure   Quality
  ID                     LPS         m         m     hours
  ----------------------------------------------------------------------
  1                     0.60    131.54     31.54    100.06
  2                     0.25    121.48     26.48    100.23
  3                     0.50    116.10     24.10    100.39
  4                     1.20    108.94     19.94    100.28
  0                    -2.55    140.00      0.00    100.00 Reservoir
  
  Link Results at 0:50 Hrs:
  ----------------------------------------------------------------------
  Link                  Flow  VelocityUnit Headloss    Status
  ID                     LPS       m/s      m/km
  ----------------------------------------------------------------------
  1                     2.55      1.23     33.82      Open
  4                     0.90      1.08     45.20      Open
  2                     1.05      0.80     20.13      Open
  5                     0.30      0.56     17.73      Open
  3                     0.50      0.60     15.21      Open
  
  Node Results at 1:00 Hrs:
  ----------------------------------------------------------------------
  Node                Demand      Head  Pressure   Quality
  ID                     LPS         m         m     hours
  ----------------------------------------------------------------------
  1                     0.60    131.54     31.54    100.06
  2                     0.25    121.48     26.48    100.23
  3                     0.50    116.10     24.10    100.39
  4                     1.20    108.94     19.94    100.28
  0                    -2.55    140.00      0.00    100.00 Reservoir
  
  Link Results at 1:00 Hrs:
  ----------------------------------------------------------------------
  Link                  Flow  VelocityUnit Headloss    Status
  ID                     LPS       m/s      m/km
  ----------------------------------------------------------------------
  1                     2.55      1.23     33.82      Open
  4                     0.90      1.08     45.20      Open
  2                     1.05      0.80     20.13      Open
  5                     0.30      0.56     17.73      Open
  3                     0.50      0.60     15.21      Open
  


  Page 5                                                                
  Node Results at 1:10 Hrs:
  ----------------------------------------------------------------------
  Node                Demand      Head  Pressure   Quality
  ID                     LPS         m         m     hours
  ----------------------------------------------------------------------
  1                     0.60    131.54     31.54    100.06
  2                     0.25    121.48     26.48    100.23
  3                     0.50    116.10     24.10    100.39
  4                     1.20    108.94     19.94    100.28
  0                    -2.55    140.00      0.00    100.00 Reservoir
  
  Link Results at 1:10 Hrs:
  ----------------------------------------------------------------------
  Link                  Flow  VelocityUnit Headloss    Status
  ID                     LPS       m/s      m/km
  ----------------------------------------------------------------------
  1                     2.55      1.23     33.82      Open
  4                     0.90      1.08     45.20      Open
  2                     1.05      0.80     20.13      Open
  5                     0.30      0.56     17.73      Open
  3                     0.50      0.60     15.21      Open
  
  Node Results at 1:20 Hrs:
  ----------------------------------------------------------------------
  Node                Demand      Head  Pressure   Quality
  ID                     LPS         m         m     hours
  ----------------------------------------------------------------------
  1                     0.60    131.54     31.54    100.06
  2                     0.25    121.48     26.48    100.23
  3                     0.50    116.10     24.10    100.39
  4                     1.20    108.94     19.94    100.28
  0                    -2.55    140.00      0.00    100.00 Reservoir
  
  Link Results at 1:20 Hrs:
  ----------------------------------------------------------------------
  Link                  Flow  VelocityUnit Headloss    Status
  ID                     LPS       m/s      m/km
  ----------------------------------------------------------------------
  1                     2.55      1.23     33.82      Open
  4                     0.90      1.08     45.20      Open
  2                     1.05      0.80     20.13      Open
  5                     0.30      0.56     17.73      Open
  3                     0.50      0.60     15.21      Open
  


  Page 6                                                                
  Node Results at 1:30 Hrs:
  ----------------------------------------------------------------------
  Node                Demand      Head  Pressure   Quality
  ID                     LPS         m         m     hours
  ----------------------------------------------------------------------
  1                     0.60    131.54     31.54    100.06
  2                     0.25    121.48     26.48    100.23
  3                     0.50    116.10     24.10    100.39
  4                     1.20    108.94     19.94    100.28
  0                    -2.55    140.00      0.00    100.00 Reservoir
  
  Link Results at 1:30 Hrs:
  ----------------------------------------------------------------------
  Link                  Flow  VelocityUnit Headloss    Status
  ID                     LPS       m/s      m/km
  ----------------------------------------------------------------------
  1                     2.55      1.23     33.82      Open
  4                     0.90      1.08     45.20      Open
  2                     1.05      0.80     20.13      Open
  5                     0.30      0.56     17.73      Open
  3                     0.50      0.60     15.21      Open
  
  Node Results at 1:40 Hrs:
  ----------------------------------------------------------------------
  Node                Demand      Head  Pressure   Quality
  ID                     LPS         m         m     hours
  ----------------------------------------------------------------------
  1                     0.60    131.54     31.54    100.06
  2                     0.25    121.48     26.48    100.23
  3                     0.50    116.10     24.10    100.39
  4                     1.20    108.94     19.94    100.28
  0                    -2.55    140.00      0.00    100.00 Reservoir
  
  Link Results at 1:40 Hrs:
  ----------------------------------------------------------------------
  Link                  Flow  VelocityUnit Headloss    Status
  ID                     LPS       m/s      m/km
  ----------------------------------------------------------------------
  1                     2.55      1.23     33.82      Open
  4                     0.90      1.08     45.20      Open
  2                     1.05      0.80     20.13      Open
  5                     0.30      0.56     17.73      Open
  3                     0.50      0.60     15.21      Open
  


  Page 7                                                                
  Node Results at 1:50 Hrs:
  ----------------------------------------------------------------------
  Node                Demand      Head  Pressure   Quality
  ID                     LPS         m         m     hours
  ----------------------------------------------------------------------
  1                     0.60    131.54     31.54    100.06
  2                     0.25    121.48     26.48    100.23
  3                     0.50    116.10     24.10    100.39
  4                     1.20    108.94     19.94    100.28
  0                    -2.55    140.00      0.00    100.00 Reservoir
  
  Link Results at 1:50 Hrs:
  ----------------------------------------------------------------------
  Link                  Flow  VelocityUnit Headloss    Status
  ID                     LPS       m/s      m/km
  ----------------------------------------------------------------------
  1                     2.55      1.23     33.82      Open
  4                     0.90      1.08     45.20      Open
  2                     1.05      0.80     20.13      Open
  5                     0.30      0.56     17.73      Open
  3                     0.50      0.60     15.21      Open
  
  Node Results at 2:00 Hrs:
  ----------------------------------------------------------------------
  Node                Demand      Head  Pressure   Quality
  ID                     LPS         m         m     hours
  ----------------------------------------------------------------------
  1                     0.60    131.54     31.54    100.06
  2                     0.25    121.48     26.48    100.23
  3                     0.50    116.10     24.10    100.39
  4                     1.20    108.94     19.94    100.28
  0                    -2.55    140.00      0.00    100.00 Reservoir
  
  Link Results at 2:00 Hrs:
  ----------------------------------------------------------------------
  Link                  Flow  VelocityUnit Headloss    Status
  ID                     LPS       m/s      m/km
  ----------------------------------------------------------------------
  1                     2.55      1.23     33.82      Open
  4                     0.90      1.08     45.20      Open
  2                     1.05      0.80     20.13      Open
  5                     0.30      0.56     17.73      Open
  3                     0.50      0.60     15.21      Open
  


  Page 8                                                                
  Node Results at 2:10 Hrs:
  ----------------------------------------------------------------------
  Node                Demand      Head  Pressure   Quality
  ID                     LPS         m         m     hours
  ----------------------------------------------------------------------
  1                     0.60    131.54     31.54    100.06
  2                     0.25    121.48     26.48    100.23
  3                     0.50    116.10     24.10    100.39
  4                     1.20    108.94     19.94    100.28
  0                    -2.55    140.00      0.00    100.00 Reservoir
  
  Link Results at 2:10 Hrs:
  ----------------------------------------------------------------------
  Link                  Flow  VelocityUnit Headloss    Status
  ID                     LPS       m/s      m/km
  ----------------------------------------------------------------------
  1                     2.55      1.23     33.82      Open
  4                     0.90      1.08     45.20      Open
  2                     1.05      0.80     20.13      Open
  5                     0.30      0.56     17.73      Open
  3                     0.50      0.60     15.21      Open
  
  Node Results at 2:20 Hrs:
  ----------------------------------------------------------------------
  Node                Demand      Head  Pressure   Quality
  ID                     LPS         m         m     hours
  ----------------------------------------------------------------------
  1                     0.60    131.54     31.54    100.06
  2                     0.25    121.48     26.48    100.23
  3                     0.50    116.10     24.10    100.39
  4                     1.20    108.94     19.94    100.28
  0                    -2.55    140.00      0.00    100.00 Reservoir
  
  Link Results at 2:20 Hrs:
  ----------------------------------------------------------------------
  Link                  Flow  VelocityUnit Headloss    Status
  ID                     LPS       m/s      m/km
  ----------------------------------------------------------------------
  1                     2.55      1.23     33.82      Open
  4                     0.90      1.08     45.20      Open
  2                     1.05      0.80     20.13      Open
  5                     0.30      0.56     17.73      Open
  3                     0.50      0.60     15.21      Open
  


  Page 9                                                                
  Node Results at 2:30 Hrs:
  ----------------------------------------------------------------------
  Node                Demand      Head  Pressure   Quality
  ID                     LPS         m         m     hours
  ----------------------------------------------------------------------
  1                     0.60    131.54     31.54    100.06
  2                     0.25    121.48     26.48    100.23
  3                     0.50    116.10     24.10    100.39
  4                     1.20    108.94     19.94    100.28
  0                    -2.55    140.00      0.00    100.00 Reservoir
  
  Link Results at 2:30 Hrs:
  ----------------------------------------------------------------------
  Link                  Flow  VelocityUnit Headloss    Status
  ID                     LPS       m/s      m/km
  ----------------------------------------------------------------------
  1                     2.55      1.23     33.82      Open
  4                     0.90      1.08     45.20      Open
  2                     1.05      0.80     20.13      Open
  5                     0.30      0.56     17.73      Open
  3                     0.50      0.60     15.21      Open
  
  Node Results at 2:40 Hrs:
  ----------------------------------------------------------------------
  Node                Demand      Head  Pressure   Quality
  ID                     LPS         m         m     hours
  ----------------------------------------------------------------------
  1                     0.60    131.54     31.54    100.06
  2                     0.25    121.48     26.48    100.23
  3                     0.50    116.10     24.10    100.39
  4                     1.20    108.94     19.94    100.28
  0                    -2.55    140.00      0.00    100.00 Reservoir
  
  Link Results at 2:40 Hrs:
  ----------------------------------------------------------------------
  Link                  Flow  VelocityUnit Headloss    Status
  ID                     LPS       m/s      m/km
  ----------------------------------------------------------------------
  1                     2.55      1.23     33.82      Open
  4                     0.90      1.08     45.20      Open
  2                     1.05      0.80     20.13      Open
  5                     0.30      0.56     17.73      Open
  3                     0.50      0.60     15.21      Open
  


  Page 10                                                               
  Node Results at 2:50 Hrs:
  ----------------------------------------------------------------------
  Node                Demand      Head  Pressure   Quality
  ID                     LPS         m         m     hours
  ----------------------------------------------------------------------
  1                     0.60    131.54     31.54    100.06
  2                     0.25    121.48     26.48    100.23
  3                     0.50    116.10     24.10    100.39
  4                     1.20    108.94     19.94    100.28
  0                    -2.55    140.00      0.00    100.00 Reservoir
  
  Link Results at 2:50 Hrs:
  ----------------------------------------------------------------------
  Link                  Flow  VelocityUnit Headloss    Status
  ID                     LPS       m/s      m/km
  ----------------------------------------------------------------------
  1                     2.55      1.23     33.82      Open
  4                     0.90      1.08     45.20      Open
  2                     1.05      0.80     20.13      Open
  5                     0.30      0.56     17.73      Open
  3                     0.50      0.60     15.21      Open
  
  Node Results at 3:00 Hrs:
  ----------------------------------------------------------------------
  Node                Demand      Head  Pressure   Quality
  ID                     LPS         m         m     hours
  ----------------------------------------------------------------------
  1                     0.60    131.54     31.54    100.06
  2                     0.25    121.48     26.48    100.23
  3                     0.50    116.10     24.10    100.39
  4                     1.20    108.94     19.94    100.28
  0                    -2.55    140.00      0.00    100.00 Reservoir
  
  Link Results at 3:00 Hrs:
  ----------------------------------------------------------------------
  Link                  Flow  VelocityUnit Headloss    Status
  ID                     LPS       m/s      m/km
  ----------------------------------------------------------------------
  1                     2.55      1.23     33.82      Open
  4                     0.90      1.08     45.20      Open
  2                     1.05      0.80     20.13      Open
  5                     0.30      0.56     17.73      Open
  3                     0.50      0.60     15.21      Open
  


  Page 11                                                               
  Node Results at 3:10 Hrs:
  ----------------------------------------------------------------------
  Node                Demand      Head  Pressure   Quality
  ID                     LPS         m         m     hours
  ----------------------------------------------------------------------
  1                     0.60    131.54     31.54    100.06
  2                     0.25    121.48     26.48    100.23
  3                     0.50    116.10     24.10    100.39
  4                     1.20    108.94     19.94    100.28
  0                    -2.55    140.00      0.00    100.00 Reservoir
  
  Link Results at 3:10 Hrs:
  ----------------------------------------------------------------------
  Link                  Flow  VelocityUnit Headloss    Status
  ID                     LPS       m/s      m/km
  ----------------------------------------------------------------------
  1                     2.55      1.23     33.82      Open
  4                     0.90      1.08     45.20      Open
  2                     1.05      0.80     20.13      Open
  5                     0.30      0.56     17.73      Open
  3                     0.50      0.60     15.21      Open
  
  Node Results at 3:20 Hrs:
  ----------------------------------------------------------------------
  Node                Demand      Head  Pressure   Quality
  ID                     LPS         m         m     hours
  ----------------------------------------------------------------------
  1                     0.60    131.54     31.54    100.06
  2                     0.25    121.48     26.48    100.23
  3                     0.50    116.10     24.10    100.39
  4                     1.20    108.94     19.94    100.28
  0                    -2.55    140.00      0.00    100.00 Reservoir
  
  Link Results at 3:20 Hrs:
  ----------------------------------------------------------------------
  Link                  Flow  VelocityUnit Headloss    Status
  ID                     LPS       m/s      m/km
  ----------------------------------------------------------------------
  1                     2.55      1.23     33.82      Open
  4                     0.90      1.08     45.20      Open
  2                     1.05      0.80     20.13      Open
  5                     0.30      0.56     17.73      Open
  3                     0.50      0.60     15.21      Open
  


  Page 12                                                               
  Node Results at 3:30 Hrs:
  ----------------------------------------------------------------------
  Node                Demand      Head  Pressure   Quality
  ID                     LPS         m         m     hours
  ----------------------------------------------------------------------
  1                     0.60    131.54     31.54    100.06
  2                     0.25    121.48     26.48    100.23
  3                     0.50    116.10     24.10    100.39
  4                     1.20    108.94     19.94    100.28
  0                    -2.55    140.00      0.00    100.00 Reservoir
  
  Link Results at 3:30 Hrs:
  ----------------------------------------------------------------------
  Link                  Flow  VelocityUnit Headloss    Status
  ID                     LPS       m/s      m/km
  ----------------------------------------------------------------------
  1                     2.55      1.23     33.82      Open
  4                     0.90      1.08     45.20      Open
  2                     1.05      0.80     20.13      Open
  5                     0.30      0.56     17.73      Open
  3                     0.50      0.60     15.21      Open
  
  Node Results at 3:40 Hrs:
  ----------------------------------------------------------------------
  Node                Demand      Head  Pressure   Quality
  ID                     LPS         m         m     hours
  ----------------------------------------------------------------------
  1                     0.60    131.54     31.54    100.06
  2                     0.25    121.48     26.48    100.23
  3                     0.50    116.10     24.10    100.39
  4                     1.20    108.94     19.94    100.28
  0                    -2.55    140.00      0.00    100.00 Reservoir
  
  Link Results at 3:40 Hrs:
  ----------------------------------------------------------------------
  Link                  Flow  VelocityUnit Headloss    Status
  ID                     LPS       m/s      m/km
  ----------------------------------------------------------------------
  1                     2.55      1.23     33.82      Open
  4                     0.90      1.08     45.20      Open
  2                     1.05      0.80     20.13      Open
  5                     0.30      0.56     17.73      Open
  3                     0.50      0.60     15.21      Open
  


  Page 13                                                               
  Node Results at 3:50 Hrs:
  ----------------------------------------------------------------------
  Node                Demand      Head  Pressure   Quality
  ID                     LPS         m         m     hours
  ----------------------------------------------------------------------
  1                     0.60    131.54     31.54    100.06
  2                     0.25    121.48     26.48    100.23
  3                     0.50    116.10     24.10    100.39
  4                     1.20    108.94     19.94    100.28
  0                    -2.55    140.00      0.00    100.00 Reservoir
  
  Link Results at 3:50 Hrs:
  ----------------------------------------------------------------------
  Link                  Flow  VelocityUnit Headloss    Status
  ID                     LPS       m/s      m/km
  ----------------------------------------------------------------------
  1                     2.55      1.23     33.82      Open
  4                     0.90      1.08     45.20      Open
  2                     1.05      0.80     20.13      Open
  5                     0.30      0.56     17.73      Open
  3                     0.50      0.60     15.21      Open
  
  Node Results at 4:00 Hrs:
  ----------------------------------------------------------------------
  Node                Demand      Head  Pressure   Quality
  ID                     LPS         m         m     hours
  ----------------------------------------------------------------------
  1                     0.60    131.54     31.54    100.06
  2                     0.25    121.48     26.48    100.23
  3                     0.50    116.10     24.10    100.39
  4                     1.20    108.94     19.94    100.28
  0                    -2.55    140.00      0.00    100.00 Reservoir
  
  Link Results at 4:00 Hrs:
  ----------------------------------------------------------------------
  Link                  Flow  VelocityUnit Headloss    Status
  ID                     LPS       m/s      m/km
  ----------------------------------------------------------------------
  1                     2.55      1.23     33.82      Open
  4                     0.90      1.08     45.20      Open
  2                     1.05      0.80     20.13      Open
  5                     0.30      0.56     17.73      Open
  3                     0.50      0.60     15.21      Open
  


  Page 14                                                               
  Node Results at 4:10 Hrs:
  ----------------------------------------------------------------------
  Node                Demand      Head  Pressure   Quality
  ID                     LPS         m         m     hours
  ----------------------------------------------------------------------
  1                     0.60    131.54     31.54    100.06
  2                     0.25    121.48     26.48    100.23
  3                     0.50    116.10     24.10    100.39
  4                     1.20    108.94     19.94    100.28
  0                    -2.55    140.00      0.00    100.00 Reservoir
  
  Link Results at 4:10 Hrs:
  ----------------------------------------------------------------------
  Link                  Flow  VelocityUnit Headloss    Status
  ID                     LPS       m/s      m/km
  ----------------------------------------------------------------------
  1                     2.55      1.23     33.82      Open
  4                     0.90      1.08     45.20      Open
  2                     1.05      0.80     20.13      Open
  5                     0.30      0.56     17.73      Open
  3                     0.50      0.60     15.21      Open
  
  Node Results at 4:20 Hrs:
  ----------------------------------------------------------------------
  Node                Demand      Head  Pressure   Quality
  ID                     LPS         m         m     hours
  ----------------------------------------------------------------------
  1                     0.60    131.54     31.54    100.06
  2                     0.25    121.48     26.48    100.23
  3                     0.50    116.10     24.10    100.39
  4                     1.20    108.94     19.94    100.28
  0                    -2.55    140.00      0.00    100.00 Reservoir
  
  Link Results at 4:20 Hrs:
  ----------------------------------------------------------------------
  Link                  Flow  VelocityUnit Headloss    Status
  ID                     LPS       m/s      m/km
  ----------------------------------------------------------------------
  1                     2.55      1.23     33.82      Open
  4                     0.90      1.08     45.20      Open
  2                     1.05      0.80     20.13      Open
  5                     0.30      0.56     17.73      Open
  3                     0.50      0.60     15.21      Open
  


  Page 15                                                               
  Node Results at 4:30 Hrs:
  ----------------------------------------------------------------------
  Node                Demand      Head  Pressure   Quality
  ID                     LPS         m         m     hours
  ----------------------------------------------------------------------
  1                     0.60    131.54     31.54    100.06
  2                     0.25    121.48     26.48    100.23
  3                     0.50    116.10     24.10    100.39
  4                     1.20    108.94     19.94    100.28
  0                    -2.55    140.00      0.00    100.00 Reservoir
  
  Link Results at 4:30 Hrs:
  ----------------------------------------------------------------------
  Link                  Flow  VelocityUnit Headloss    Status
  ID                     LPS       m/s      m/km
  ----------------------------------------------------------------------
  1                     2.55      1.23     33.82      Open
  4                     0.90      1.08     45.20      Open
  2                     1.05      0.80     20.13      Open
  5                     0.30      0.56     17.73      Open
  3                     0.50      0.60     15.21      Open
  
  Node Results at 4:40 Hrs:
  ----------------------------------------------------------------------
  Node                Demand      Head  Pressure   Quality
  ID                     LPS         m         m     hours
  ----------------------------------------------------------------------
  1                     0.60    131.54     31.54    100.06
  2                     0.25    121.48     26.48    100.23
  3                     0.50    116.10     24.10    100.39
  4                     1.20    108.94     19.94    100.28
  0                    -2.55    140.00      0.00    100.00 Reservoir
  
  Link Results at 4:40 Hrs:
  ----------------------------------------------------------------------
  Link                  Flow  VelocityUnit Headloss    Status
  ID                     LPS       m/s      m/km
  ----------------------------------------------------------------------
  1                     2.55      1.23     33.82      Open
  4                     0.90      1.08     45.20      Open
  2                     1.05      0.80     20.13      Open
  5                     0.30      0.56     17.73      Open
  3                     0.50      0.60     15.21      Open
  


  Page 16                                                               
  Node Results at 4:50 Hrs:
  ----------------------------------------------------------------------
  Node                Demand      Head  Pressure   Quality
  ID                     LPS         m         m     hours
  ----------------------------------------------------------------------
  1                     0.60    131.54     31.54    100.06
  2                     0.25    121.48     26.48    100.23
  3                     0.50    116.10     24.10    100.39
  4                     1.20    108.94     19.94    100.28
  0                    -2.55    140.00      0.00    100.00 Reservoir
  
  Link Results at 4:50 Hrs:
  ----------------------------------------------------------------------
  Link                  Flow  VelocityUnit Headloss    Status
  ID                     LPS       m/s      m/km
  ----------------------------------------------------------------------
  1                     2.55      1.23     33.82      Open
  4                     0.90      1.08     45.20      Open
  2                     1.05      0.80     20.13      Open
  5                     0.30      0.56     17.73      Open
  3                     0.50      0.60     15.21      Open
  
  Node Results at 5:00 Hrs:
  ----------------------------------------------------------------------
  Node                Demand      Head  Pressure   Quality
  ID                     LPS         m         m     hours
  ----------------------------------------------------------------------
  1                     0.60    131.54     31.54    100.06
  2                     0.25    121.48     26.48    100.23
  3                     0.50    116.10     24.10    100.39
  4                     1.20    108.94     19.94    100.28
  0                    -2.55    140.00      0.00    100.00 Reservoir
  
  Link Results at 5:00 Hrs:
  ----------------------------------------------------------------------
  Link                  Flow  VelocityUnit Headloss    Status
  ID                     LPS       m/s      m/km
  ----------------------------------------------------------------------
  1                     2.55      1.23     33.82      Open
  4                     0.90      1.08     45.20      Open
  2                     1.05      0.80     20.13      Open
  5                     0.30      0.56     17.73      Open
  3                     0.50      0.60     15.21      Open
  


  Page 17                                                               
  Node Results at 5:10 Hrs:
  ----------------------------------------------------------------------
  Node                Demand      Head  Pressure   Quality
  ID                     LPS         m         m     hours
  ----------------------------------------------------------------------
  1                     0.60    131.54     31.54    100.06
  2                     0.25    121.48     26.48    100.23
  3                     0.50    116.10     24.10    100.39
  4                     1.20    108.94     19.94    100.28
  0                    -2.55    140.00      0.00    100.00 Reservoir
  
  Link Results at 5:10 Hrs:
  ----------------------------------------------------------------------
  Link                  Flow  VelocityUnit Headloss    Status
  ID                     LPS       m/s      m/km
  ----------------------------------------------------------------------
  1                     2.55      1.23     33.82      Open
  4                     0.90      1.08     45.20      Open
  2                     1.05      0.80     20.13      Open
  5                     0.30      0.56     17.73      Open
  3                     0.50      0.60     15.21      Open
  
  Node Results at 5:20 Hrs:
  ----------------------------------------------------------------------
  Node                Demand      Head  Pressure   Quality
  ID                     LPS         m         m     hours
  ----------------------------------------------------------------------
  1                     0.60    131.54     31.54    100.06
  2                     0.25    121.48     26.48    100.23
  3                     0.50    116.10     24.10    100.39
  4                     1.20    108.94     19.94    100.28
  0                    -2.55    140.00      0.00    100.00 Reservoir
  
  Link Results at 5:20 Hrs:
  ----------------------------------------------------------------------
  Link                  Flow  VelocityUnit Headloss    Status
  ID                     LPS       m/s      m/km
  ----------------------------------------------------------------------
  1                     2.55      1.23     33.82      Open
  4                     0.90      1.08     45.20      Open
  2                     1.05      0.80     20.13      Open
  5                     0.30      0.56     17.73      Open
  3                     0.50      0.60     15.21      Open
  


  Page 18                                                               
  Node Results at 5:30 Hrs:
  ----------------------------------------------------------------------
  Node                Demand      Head  Pressure   Quality
  ID                     LPS         m         m     hours
  ----------------------------------------------------------------------
  1                     0.60    131.54     31.54    100.06
  2                     0.25    121.48     26.48    100.23
  3                     0.50    116.10     24.10    100.39
  4                     1.20    108.94     19.94    100.28
  0                    -2.55    140.00      0.00    100.00 Reservoir
  
  Link Results at 5:30 Hrs:
  ----------------------------------------------------------------------
  Link                  Flow  VelocityUnit Headloss    Status
  ID                     LPS       m/s      m/km
  ----------------------------------------------------------------------
  1                     2.55      1.23     33.82      Open
  4                     0.90      1.08     45.20      Open
  2                     1.05      0.80     20.13      Open
  5                     0.30      0.56     17.73      Open
  3                     0.50      0.60     15.21      Open
  
  Node Results at 5:40 Hrs:
  ----------------------------------------------------------------------
  Node                Demand      Head  Pressure   Quality
  ID                     LPS         m         m     hours
  ----------------------------------------------------------------------
  1                     0.60    131.54     31.54    100.06
  2                     0.25    121.48     26.48    100.23
  3                     0.50    116.10     24.10    100.39
  4                     1.20    108.94     19.94    100.28
  0                    -2.55    140.00      0.00    100.00 Reservoir
  
  Link Results at 5:40 Hrs:
  ----------------------------------------------------------------------
  Link                  Flow  VelocityUnit Headloss    Status
  ID                     LPS       m/s      m/km
  ----------------------------------------------------------------------
  1                     2.55      1.23     33.82      Open
  4                     0.90      1.08     45.20      Open
  2                     1.05      0.80     20.13      Open
  5                     0.30      0.56     17.73      Open
  3                     0.50      0.60     15.21      Open
  


  Page 19                                                               
  Node Results at 5:50 Hrs:
  ----------------------------------------------------------------------
  Node                Demand      Head  Pressure   Quality
  ID                     LPS         m         m     hours
  ----------------------------------------------------------------------
  1                     0.60    131.54     31.54    100.06
  2                     0.25    121.48     26.48    100.23
  3                     0.50    116.10     24.10    100.39
  4                     1.20    108.94     19.94    100.28
  0                    -2.55    140.00      0.00    100.00 Reservoir
  
  Link Results at 5:50 Hrs:
  ----------------------------------------------------------------------
  Link                  Flow  VelocityUnit Headloss    Status
  ID                     LPS       m/s      m/km
  ----------------------------------------------------------------------
  1                     2.55      1.23     33.82      Open
  4                     0.90      1.08     45.20      Open
  2                     1.05      0.80     20.13      Open
  5                     0.30      0.56     17.73      Open
  3                     0.50      0.60     15.21      Open
  
  Node Results at 6:00 Hrs:
  ----------------------------------------------------------------------
  Node                Demand      Head  Pressure   Quality
  ID                     LPS         m         m     hours
  ----------------------------------------------------------------------
  1                     0.60    131.54     31.54    100.06
  2                     0.25    121.48     26.48    100.23
  3                     0.50    116.10     24.10    100.39
  4                     1.20    108.94     19.94    100.28
  0                    -2.55    140.00      0.00    100.00 Reservoir
  
  Link Results at 6:00 Hrs:
  ----------------------------------------------------------------------
  Link                  Flow  VelocityUnit Headloss    Status
  ID                     LPS       m/s      m/km
  ----------------------------------------------------------------------
  1                     2.55      1.23     33.82      Open
  4                     0.90      1.08     45.20      Open
  2                     1.05      0.80     20.13      Open
  5                     0.30      0.56     17.73      Open
  3                     0.50      0.60     15.21      Open
  


  Page 20                                                               
  Node Results at 6:10 Hrs:
  ----------------------------------------------------------------------
  Node                Demand      Head  Pressure   Quality
  ID                     LPS         m         m     hours
  ----------------------------------------------------------------------
  1                     0.60    131.54     31.54    100.06
  2                     0.25    121.48     26.48    100.23
  3                     0.50    116.10     24.10    100.39
  4                     1.20    108.94     19.94    100.28
  0                    -2.55    140.00      0.00    100.00 Reservoir
  
  Link Results at 6:10 Hrs:
  ----------------------------------------------------------------------
  Link                  Flow  VelocityUnit Headloss    Status
  ID                     LPS       m/s      m/km
  ----------------------------------------------------------------------
  1                     2.55      1.23     33.82      Open
  4                     0.90      1.08     45.20      Open
  2                     1.05      0.80     20.13      Open
  5                     0.30      0.56     17.73      Open
  3                     0.50      0.60     15.21      Open
  
  Node Results at 6:20 Hrs:
  ----------------------------------------------------------------------
  Node                Demand      Head  Pressure   Quality
  ID                     LPS         m         m     hours
  ----------------------------------------------------------------------
  1                     0.60    131.54     31.54    100.06
  2                     0.25    121.48     26.48    100.23
  3                     0.50    116.10     24.10    100.39
  4                     1.20    108.94     19.94    100.28
  0                    -2.55    140.00      0.00    100.00 Reservoir
  
  Link Results at 6:20 Hrs:
  ----------------------------------------------------------------------
  Link                  Flow  VelocityUnit Headloss    Status
  ID                     LPS       m/s      m/km
  ----------------------------------------------------------------------
  1                     2.55      1.23     33.82      Open
  4                     0.90      1.08     45.20      Open
  2                     1.05      0.80     20.13      Open
  5                     0.30      0.56     17.73      Open
  3                     0.50      0.60     15.21      Open
  


  Page 21                                                               
  Node Results at 6:30 Hrs:
  ----------------------------------------------------------------------
  Node                Demand      Head  Pressure   Quality
  ID                     LPS         m         m     hours
  ----------------------------------------------------------------------
  1                     0.60    131.54     31.54    100.06
  2                     0.25    121.48     26.48    100.23
  3                     0.50    116.10     24.10    100.39
  4                     1.20    108.94     19.94    100.28
  0                    -2.55    140.00      0.00    100.00 Reservoir
  
  Link Results at 6:30 Hrs:
  ----------------------------------------------------------------------
  Link                  Flow  VelocityUnit Headloss    Status
  ID                     LPS       m/s      m/km
  ----------------------------------------------------------------------
  1                     2.55      1.23     33.82      Open
  4                     0.90      1.08     45.20      Open
  2                     1.05      0.80     20.13      Open
  5                     0.30      0.56     17.73      Open
  3                     0.50      0.60     15.21      Open
  
  Node Results at 6:40 Hrs:
  ----------------------------------------------------------------------
  Node                Demand      Head  Pressure   Quality
  ID                     LPS         m         m     hours
  ----------------------------------------------------------------------
  1                     0.60    131.54     31.54    100.06
  2                     0.25    121.48     26.48    100.23
  3                     0.50    116.10     24.10    100.39
  4                     1.20    108.94     19.94    100.28
  0                    -2.55    140.00      0.00    100.00 Reservoir
  
  Link Results at 6:40 Hrs:
  ----------------------------------------------------------------------
  Link                  Flow  VelocityUnit Headloss    Status
  ID                     LPS       m/s      m/km
  ----------------------------------------------------------------------
  1                     2.55      1.23     33.82      Open
  4                     0.90      1.08     45.20      Open
  2                     1.05      0.80     20.13      Open
  5                     0.30      0.56     17.73      Open
  3                     0.50      0.60     15.21      Open
  


  Page 22                                                               
  Node Results at 6:50 Hrs:
  ----------------------------------------------------------------------
  Node                Demand      Head  Pressure   Quality
  ID                     LPS         m         m     hours
  ----------------------------------------------------------------------
  1                     0.60    131.54     31.54    100.06
  2                     0.25    121.48     26.48    100.23
  3                     0.50    116.10     24.10    100.39
  4                     1.20    108.94     19.94    100.28
  0                    -2.55    140.00      0.00    100.00 Reservoir
  
  Link Results at 6:50 Hrs:
  ----------------------------------------------------------------------
  Link                  Flow  VelocityUnit Headloss    Status
  ID                     LPS       m/s      m/km
  ----------------------------------------------------------------------
  1                     2.55      1.23     33.82      Open
  4                     0.90      1.08     45.20      Open
  2                     1.05      0.80     20.13      Open
  5                     0.30      0.56     17.73      Open
  3                     0.50      0.60     15.21      Open
  
  Node Results at 7:00 Hrs:
  ----------------------------------------------------------------------
  Node                Demand      Head  Pressure   Quality
  ID                     LPS         m         m     hours
  ----------------------------------------------------------------------
  1                     0.60    131.54     31.54    100.06
  2                     0.25    121.48     26.48    100.23
  3                     0.50    116.10     24.10    100.39
  4                     1.20    108.94     19.94    100.28
  0                    -2.55    140.00      0.00    100.00 Reservoir
  
  Link Results at 7:00 Hrs:
  ----------------------------------------------------------------------
  Link                  Flow  VelocityUnit Headloss    Status
  ID                     LPS       m/s      m/km
  ----------------------------------------------------------------------
  1                     2.55      1.23     33.82      Open
  4                     0.90      1.08     45.20      Open
  2                     1.05      0.80     20.13      Open
  5                     0.30      0.56     17.73      Open
  3                     0.50      0.60     15.21      Open
  


  Page 23                                                               
  Node Results at 7:10 Hrs:
  ----------------------------------------------------------------------
  Node                Demand      Head  Pressure   Quality
  ID                     LPS         m         m     hours
  ----------------------------------------------------------------------
  1                     0.60    131.54     31.54    100.06
  2                     0.25    121.48     26.48    100.23
  3                     0.50    116.10     24.10    100.39
  4                     1.20    108.94     19.94    100.28
  0                    -2.55    140.00      0.00    100.00 Reservoir
  
  Link Results at 7:10 Hrs:
  ----------------------------------------------------------------------
  Link                  Flow  VelocityUnit Headloss    Status
  ID                     LPS       m/s      m/km
  ----------------------------------------------------------------------
  1                     2.55      1.23     33.82      Open
  4                     0.90      1.08     45.20      Open
  2                     1.05      0.80     20.13      Open
  5                     0.30      0.56     17.73      Open
  3                     0.50      0.60     15.21      Open
  
  Node Results at 7:20 Hrs:
  ----------------------------------------------------------------------
  Node                Demand      Head  Pressure   Quality
  ID                     LPS         m         m     hours
  ----------------------------------------------------------------------
  1                     0.60    131.54     31.54    100.06
  2                     0.25    121.48     26.48    100.23
  3                     0.50    116.10     24.10    100.39
  4                     1.20    108.94     19.94    100.28
  0                    -2.55    140.00      0.00    100.00 Reservoir
  
  Link Results at 7:20 Hrs:
  ----------------------------------------------------------------------
  Link                  Flow  VelocityUnit Headloss    Status
  ID                     LPS       m/s      m/km
  ----------------------------------------------------------------------
  1                     2.55      1.23     33.82      Open
  4                     0.90      1.08     45.20      Open
  2                     1.05      0.80     20.13      Open
  5                     0.30      0.56     17.73      Open
  3                     0.50      0.60     15.21      Open
  


  Page 24                                                               
  Node Results at 7:30 Hrs:
  ----------------------------------------------------------------------
  Node                Demand      Head  Pressure   Quality
  ID                     LPS         m         m     hours
  ----------------------------------------------------------------------
  1                     0.60    131.54     31.54    100.06
  2                     0.25    121.48     26.48    100.23
  3                     0.50    116.10     24.10    100.39
  4                     1.20    108.94     19.94    100.28
  0                    -2.55    140.00      0.00    100.00 Reservoir
  
  Link Results at 7:30 Hrs:
  ----------------------------------------------------------------------
  Link                  Flow  VelocityUnit Headloss    Status
  ID                     LPS       m/s      m/km
  ----------------------------------------------------------------------
  1                     2.55      1.23     33.82      Open
  4                     0.90      1.08     45.20      Open
  2                     1.05      0.80     20.13      Open
  5                     0.30      0.56     17.73      Open
  3                     0.50      0.60     15.21      Open
  
  Node Results at 7:40 Hrs:
  ----------------------------------------------------------------------
  Node                Demand      Head  Pressure   Quality
  ID                     LPS         m         m     hours
  ----------------------------------------------------------------------
  1                     0.60    131.54     31.54    100.06
  2                     0.25    121.48     26.48    100.23
  3                     0.50    116.10     24.10    100.39
  4                     1.20    108.94     19.94    100.28
  0                    -2.55    140.00      0.00    100.00 Reservoir
  
  Link Results at 7:40 Hrs:
  ----------------------------------------------------------------------
  Link                  Flow  VelocityUnit Headloss    Status
  ID                     LPS       m/s      m/km
  ----------------------------------------------------------------------
  1                     2.55      1.23     33.82      Open
  4                     0.90      1.08     45.20      Open
  2                     1.05      0.80     20.13      Open
  5                     0.30      0.56     17.73      Open
  3                     0.50      0.60     15.21      Open
  


  Page 25                                                               
  Node Results at 7:50 Hrs:
  ----------------------------------------------------------------------
  Node                Demand      Head  Pressure   Quality
  ID                     LPS         m         m     hours
  ----------------------------------------------------------------------
  1                     0.60    131.54     31.54    100.06
  2                     0.25    121.48     26.48    100.23
  3                     0.50    116.10     24.10    100.39
  4                     1.20    108.94     19.94    100.28
  0                    -2.55    140.00      0.00    100.00 Reservoir
  
  Link Results at 7:50 Hrs:
  ----------------------------------------------------------------------
  Link                  Flow  VelocityUnit Headloss    Status
  ID                     LPS       m/s      m/km
  ----------------------------------------------------------------------
  1                     2.55      1.23     33.82      Open
  4                     0.90      1.08     45.20      Open
  2                     1.05      0.80     20.13      Open
  5                     0.30      0.56     17.73      Open
  3                     0.50      0.60     15.21      Open
  
  Node Results at 8:00 Hrs:
  ----------------------------------------------------------------------
  Node                Demand      Head  Pressure   Quality
  ID                     LPS         m         m     hours
  ----------------------------------------------------------------------
  1                     0.60    131.54     31.54    100.06
  2                     0.25    121.48     26.48    100.23
  3                     0.50    116.10     24.10    100.39
  4                     1.20    108.94     19.94    100.28
  0                    -2.55    140.00      0.00    100.00 Reservoir
  
  Link Results at 8:00 Hrs:
  ----------------------------------------------------------------------
  Link                  Flow  VelocityUnit Headloss    Status
  ID                     LPS       m/s      m/km
  ----------------------------------------------------------------------
  1                     2.55      1.23     33.82      Open
  4                     0.90      1.08     45.20      Open
  2                     1.05      0.80     20.13      Open
  5                     0.30      0.56     17.73      Open
  3                     0.50      0.60     15.21      Open
  


  Page 26                                                               
  Node Results at 8:10 Hrs:
  ----------------------------------------------------------------------
  Node                Demand      Head  Pressure   Quality
  ID                     LPS         m         m     hours
  ----------------------------------------------------------------------
  1                     0.60    131.54     31.54    100.06
  2                     0.25    121.48     26.48    100.23
  3                     0.50    116.10     24.10    100.39
  4                     1.20    108.94     19.94    100.28
  0                    -2.55    140.00      0.00    100.00 Reservoir
  
  Link Results at 8:10 Hrs:
  ----------------------------------------------------------------------
  Link                  Flow  VelocityUnit Headloss    Status
  ID                     LPS       m/s      m/km
  ----------------------------------------------------------------------
  1                     2.55      1.23     33.82      Open
  4                     0.90      1.08     45.20      Open
  2                     1.05      0.80     20.13      Open
  5                     0.30      0.56     17.73      Open
  3                     0.50      0.60     15.21      Open
  
  Node Results at 8:20 Hrs:
  ----------------------------------------------------------------------
  Node                Demand      Head  Pressure   Quality
  ID                     LPS         m         m     hours
  ----------------------------------------------------------------------
  1                     0.60    131.54     31.54    100.06
  2                     0.25    121.48     26.48    100.23
  3                     0.50    116.10     24.10    100.39
  4                     1.20    108.94     19.94    100.28
  0                    -2.55    140.00      0.00    100.00 Reservoir
  
  Link Results at 8:20 Hrs:
  ----------------------------------------------------------------------
  Link                  Flow  VelocityUnit Headloss    Status
  ID                     LPS       m/s      m/km
  ----------------------------------------------------------------------
  1                     2.55      1.23     33.82      Open
  4                     0.90      1.08     45.20      Open
  2                     1.05      0.80     20.13      Open
  5                     0.30      0.56     17.73      Open
  3                     0.50      0.60     15.21      Open
  


  Page 27                                                               
  Node Results at 8:30 Hrs:
  ----------------------------------------------------------------------
  Node                Demand      Head  Pressure   Quality
  ID                     LPS         m         m     hours
  ----------------------------------------------------------------------
  1                     0.60    131.54     31.54    100.06
  2                     0.25    121.48     26.48    100.23
  3                     0.50    116.10     24.10    100.39
  4                     1.20    108.94     19.94    100.28
  0                    -2.55    140.00      0.00    100.00 Reservoir
  
  Link Results at 8:30 Hrs:
  ----------------------------------------------------------------------
  Link                  Flow  VelocityUnit Headloss    Status
  ID                     LPS       m/s      m/km
  ----------------------------------------------------------------------
  1                     2.55      1.23     33.82      Open
  4                     0.90      1.08     45.20      Open
  2                     1.05      0.80     20.13      Open
  5                     0.30      0.56     17.73      Open
  3                     0.50      0.60     15.21      Open
  
  Node Results at 8:40 Hrs:
  ----------------------------------------------------------------------
  Node                Demand      Head  Pressure   Quality
  ID                     LPS         m         m     hours
  ----------------------------------------------------------------------
  1                     0.60    131.54     31.54    100.06
  2                     0.25    121.48     26.48    100.23
  3                     0.50    116.10     24.10    100.39
  4                     1.20    108.94     19.94    100.28
  0                    -2.55    140.00      0.00    100.00 Reservoir
  
  Link Results at 8:40 Hrs:
  ----------------------------------------------------------------------
  Link                  Flow  VelocityUnit Headloss    Status
  ID                     LPS       m/s      m/km
  ----------------------------------------------------------------------
  1                     2.55      1.23     33.82      Open
  4                     0.90      1.08     45.20      Open
  2                     1.05      0.80     20.13      Open
  5                     0.30      0.56     17.73      Open
  3                     0.50      0.60     15.21      Open
  


  Page 28                                                               
  Node Results at 8:50 Hrs:
  ----------------------------------------------------------------------
  Node                Demand      Head  Pressure   Quality
  ID                     LPS         m         m     hours
  ----------------------------------------------------------------------
  1                     0.60    131.54     31.54    100.06
  2                     0.25    121.48     26.48    100.23
  3                     0.50    116.10     24.10    100.39
  4                     1.20    108.94     19.94    100.28
  0                    -2.55    140.00      0.00    100.00 Reservoir
  
  Link Results at 8:50 Hrs:
  ----------------------------------------------------------------------
  Link                  Flow  VelocityUnit Headloss    Status
  ID                     LPS       m/s      m/km
  ----------------------------------------------------------------------
  1                     2.55      1.23     33.82      Open
  4                     0.90      1.08     45.20      Open
  2                     1.05      0.80     20.13      Open
  5                     0.30      0.56     17.73      Open
  3                     0.50      0.60     15.21      Open
  
  Node Results at 9:00 Hrs:
  ----------------------------------------------------------------------
  Node                Demand      Head  Pressure   Quality
  ID                     LPS         m         m     hours
  ----------------------------------------------------------------------
  1                     0.60    131.54     31.54    100.06
  2                     0.25    121.48     26.48    100.23
  3                     0.50    116.10     24.10    100.39
  4                     1.20    108.94     19.94    100.28
  0                    -2.55    140.00      0.00    100.00 Reservoir
  
  Link Results at 9:00 Hrs:
  ----------------------------------------------------------------------
  Link                  Flow  VelocityUnit Headloss    Status
  ID                     LPS       m/s      m/km
  ----------------------------------------------------------------------
  1                     2.55      1.23     33.82      Open
  4                     0.90      1.08     45.20      Open
  2                     1.05      0.80     20.13      Open
  5                     0.30      0.56     17.73      Open
  3                     0.50      0.60     15.21      Open
  


  Page 29                                                               
  Node Results at 9:10 Hrs:
  ----------------------------------------------------------------------
  Node                Demand      Head  Pressure   Quality
  ID                     LPS         m         m     hours
  ----------------------------------------------------------------------
  1                     0.60    131.54     31.54    100.06
  2                     0.25    121.48     26.48    100.23
  3                     0.50    116.10     24.10    100.39
  4                     1.20    108.94     19.94    100.28
  0                    -2.55    140.00      0.00    100.00 Reservoir
  
  Link Results at 9:10 Hrs:
  ----------------------------------------------------------------------
  Link                  Flow  VelocityUnit Headloss    Status
  ID                     LPS       m/s      m/km
  ----------------------------------------------------------------------
  1                     2.55      1.23     33.82      Open
  4                     0.90      1.08     45.20      Open
  2                     1.05      0.80     20.13      Open
  5                     0.30      0.56     17.73      Open
  3                     0.50      0.60     15.21      Open
  
  Node Results at 9:20 Hrs:
  ----------------------------------------------------------------------
  Node                Demand      Head  Pressure   Quality
  ID                     LPS         m         m     hours
  ----------------------------------------------------------------------
  1                     0.60    131.54     31.54    100.06
  2                     0.25    121.48     26.48    100.23
  3                     0.50    116.10     24.10    100.39
  4                     1.20    108.94     19.94    100.28
  0                    -2.55    140.00      0.00    100.00 Reservoir
  
  Link Results at 9:20 Hrs:
  ----------------------------------------------------------------------
  Link                  Flow  VelocityUnit Headloss    Status
  ID                     LPS       m/s      m/km
  ----------------------------------------------------------------------
  1                     2.55      1.23     33.82      Open
  4                     0.90      1.08     45.20      Open
  2                     1.05      0.80     20.13      Open
  5                     0.30      0.56     17.73      Open
  3                     0.50      0.60     15.21      Open
  


  Page 30                                                               
  Node Results at 9:30 Hrs:
  ----------------------------------------------------------------------
  Node                Demand      Head  Pressure   Quality
  ID                     LPS         m         m     hours
  ----------------------------------------------------------------------
  1                     0.60    131.54     31.54    100.06
  2                     0.25    121.48     26.48    100.23
  3                     0.50    116.10     24.10    100.39
  4                     1.20    108.94     19.94    100.28
  0                    -2.55    140.00      0.00    100.00 Reservoir
  
  Link Results at 9:30 Hrs:
  ----------------------------------------------------------------------
  Link                  Flow  VelocityUnit Headloss    Status
  ID                     LPS       m/s      m/km
  ----------------------------------------------------------------------
  1                     2.55      1.23     33.82      Open
  4                     0.90      1.08     45.20      Open
  2                     1.05      0.80     20.13      Open
  5                     0.30      0.56     17.73      Open
  3                     0.50      0.60     15.21      Open
  
  Node Results at 9:40 Hrs:
  ----------------------------------------------------------------------
  Node                Demand      Head  Pressure   Quality
  ID                     LPS         m         m     hours
  ----------------------------------------------------------------------
  1                     0.60    131.54     31.54    100.06
  2                     0.25    121.48     26.48    100.23
  3                     0.50    116.10     24.10    100.39
  4                     1.20    108.94     19.94    100.28
  0                    -2.55    140.00      0.00    100.00 Reservoir
  
  Link Results at 9:40 Hrs:
  ----------------------------------------------------------------------
  Link                  Flow  VelocityUnit Headloss    Status
  ID                     LPS       m/s      m/km
  ----------------------------------------------------------------------
  1                     2.55      1.23     33.82      Open
  4                     0.90      1.08     45.20      Open
  2                     1.05      0.80     20.13      Open
  5                     0.30      0.56     17.73      Open
  3                     0.50      0.60     15.21      Open
  


  Page 31                                                               
  Node Results at 9:50 Hrs:
  ----------------------------------------------------------------------
  Node                Demand      Head  Pressure   Quality
  ID                     LPS         m         m     hours
  ----------------------------------------------------------------------
  1                     0.60    131.54     31.54    100.06
  2                     0.25    121.48     26.48    100.23
  3                     0.50    116.10     24.10    100.39
  4                     1.20    108.94     19.94    100.28
  0                    -2.55    140.00      0.00    100.00 Reservoir
  
  Link Results at 9:50 Hrs:
  ----------------------------------------------------------------------
  Link                  Flow  VelocityUnit Headloss    Status
  ID                     LPS       m/s      m/km
  ----------------------------------------------------------------------
  1                     2.55      1.23     33.82      Open
  4                     0.90      1.08     45.20      Open
  2                     1.05      0.80     20.13      Open
  5                     0.30      0.56     17.73      Open
  3                     0.50      0.60     15.21      Open
  
  Node Results at 10:00 Hrs:
  ----------------------------------------------------------------------
  Node                Demand      Head  Pressure   Quality
  ID                     LPS         m         m     hours
  ----------------------------------------------------------------------
  1                     0.60    131.54     31.54    100.06
  2                     0.25    121.48     26.48    100.23
  3                     0.50    116.10     24.10    100.39
  4                     1.20    108.94     19.94    100.28
  0                    -2.55    140.00      0.00    100.00 Reservoir
  
  Link Results at 10:00 Hrs:
  ----------------------------------------------------------------------
  Link                  Flow  VelocityUnit Headloss    Status
  ID                     LPS       m/s      m/km
  ----------------------------------------------------------------------
  1                     2.55      1.23     33.82      Open
  4                     0.90      1.08     45.20      Open
  2                     1.05      0.80     20.13      Open
  5                     0.30      0.56     17.73      Open
  3                     0.50      0.60     15.21      Open
  


  Page 32                                                               
  Node Results at 10:10 Hrs:
  ----------------------------------------------------------------------
  Node                Demand      Head  Pressure   Quality
  ID                     LPS         m         m     hours
  ----------------------------------------------------------------------
  1                     0.60    131.54     31.54    100.06
  2                     0.25    121.48     26.48    100.23
  3                     0.50    116.10     24.10    100.39
  4                     1.20    108.94     19.94    100.28
  0                    -2.55    140.00      0.00    100.00 Reservoir
  
  Link Results at 10:10 Hrs:
  ----------------------------------------------------------------------
  Link                  Flow  VelocityUnit Headloss    Status
  ID                     LPS       m/s      m/km
  ----------------------------------------------------------------------
  1                     2.55      1.23     33.82      Open
  4                     0.90      1.08     45.20      Open
  2                     1.05      0.80     20.13      Open
  5                     0.30      0.56     17.73      Open
  3                     0.50      0.60     15.21      Open
  
  Node Results at 10:20 Hrs:
  ----------------------------------------------------------------------
  Node                Demand      Head  Pressure   Quality
  ID                     LPS         m         m     hours
  ----------------------------------------------------------------------
  1                     0.60    131.54     31.54    100.06
  2                     0.25    121.48     26.48    100.23
  3                     0.50    116.10     24.10    100.39
  4                     1.20    108.94     19.94    100.28
  0                    -2.55    140.00      0.00    100.00 Reservoir
  
  Link Results at 10:20 Hrs:
  ----------------------------------------------------------------------
  Link                  Flow  VelocityUnit Headloss    Status
  ID                     LPS       m/s      m/km
  ----------------------------------------------------------------------
  1                     2.55      1.23     33.82      Open
  4                     0.90      1.08     45.20      Open
  2                     1.05      0.80     20.13      Open
  5                     0.30      0.56     17.73      Open
  3                     0.50      0.60     15.21      Open
  


  Page 33                                                               
  Node Results at 10:30 Hrs:
  ----------------------------------------------------------------------
  Node                Demand      Head  Pressure   Quality
  ID                     LPS         m         m     hours
  ----------------------------------------------------------------------
[...]
  


  Page 66                                                               
  Node Results at 21:30 Hrs:
  ----------------------------------------------------------------------
  Node                Demand      Head  Pressure   Quality
  ID                     LPS         m         m     hours
  ----------------------------------------------------------------------
  1                     0.60    131.54     31.54    100.06
  2                     0.25    121.48     26.48    100.23
  3                     0.50    116.10     24.10    100.39
  4                     1.20    108.94     19.94    100.28
  0                    -2.55    140.00      0.00    100.00 Reservoir
  
  Link Results at 21:30 Hrs:
  ----------------------------------------------------------------------
  Link                  Flow  VelocityUnit Headloss    Status
  ID                     LPS       m/s      m/km
  ----------------------------------------------------------------------
  1                     2.55      1.23     33.82      Open
  4                     0.90      1.08     45.20      Open
  2                     1.05      0.80     20.13      Open
  5                     0.30      0.56     17.73      Open
  3                     0.50      0.60     15.21      Open
  
  Node Results at 21:40 Hrs:
  ----------------------------------------------------------------------
  Node                Demand      Head  Pressure   Quality
  ID                     LPS         m         m     hours
  ----------------------------------------------------------------------
  1                     0.60    131.54     31.54    100.06
  2                     0.25    121.48     26.48    100.23
  3                     0.50    116.10     24.10    100.39
  4                     1.20    108.94     19.94    100.28
  0                    -2.55    140.00      0.00    100.00 Reservoir
  
  Link Results at 21:40 Hrs:
  ----------------------------------------------------------------------
  Link                  Flow  VelocityUnit Headloss    Status
  ID                     LPS       m/s      m/km
  ----------------------------------------------------------------------
  1                     2.55      1.23     33.82      Open
  4                     0.90      1.08     45.20      Open
  2                     1.05      0.80     20.13      Open
  5                     0.30      0.56     17.73      Open
  3                     0.50      0.60     15.21      Open
  


  Page 67                                                               
  Node Results at 21:50 Hrs:
  ----------------------------------------------------------------------
  Node                Demand      Head  Pressure   Quality
  ID                     LPS         m         m     hours
  ----------------------------------------------------------------------
  1                     0.60    131.54     31.54    100.06
  2                     0.25    121.48     26.48    100.23
  3                     0.50    116.10     24.10    100.39
  4                     1.20    108.94     19.94    100.28
  0                    -2.55    140.00      0.00    100.00 Reservoir
  
  Link Results at 21:50 Hrs:
  ----------------------------------------------------------------------
  Link                  Flow  VelocityUnit Headloss    Status
  ID                     LPS       m/s      m/km
  ----------------------------------------------------------------------
  1                     2.55      1.23     33.82      Open
  4                     0.90      1.08     45.20      Open
  2                     1.05      0.80     20.13      Open
  5                     0.30      0.56     17.73      Open
  3                     0.50      0.60     15.21      Open
  
  Node Results at 22:00 Hrs:
  ----------------------------------------------------------------------
  Node                Demand      Head  Pressure   Quality
  ID                     LPS         m         m     hours
  ----------------------------------------------------------------------
  1                     0.60    131.54     31.54    100.06
  2                     0.25    121.48     26.48    100.23
  3                     0.50    116.10     24.10    100.39
  4                     1.20    108.94     19.94    100.28
  0                    -2.55    140.00      0.00    100.00 Reservoir
  
  Link Results at 22:00 Hrs:
  ----------------------------------------------------------------------
  Link                  Flow  VelocityUnit Headloss    Status
  ID                     LPS       m/s      m/km
  ----------------------------------------------------------------------
  1                     2.55      1.23     33.82      Open
  4                     0.90      1.08     45.20      Open
  2                     1.05      0.80     20.13      Open
  5                     0.30      0.56     17.73      Open
  3                     0.50      0.60     15.21      Open
  


  Page 68                                                               
  Node Results at 22:10 Hrs:
  ----------------------------------------------------------------------
  Node                Demand      Head  Pressure   Quality
  ID                     LPS         m         m     hours
  ----------------------------------------------------------------------
  1                     0.60    131.54     31.54    100.06
  2                     0.25    121.48     26.48    100.23
  3                     0.50    116.10     24.10    100.39
  4                     1.20    108.94     19.94    100.28
  0                    -2.55    140.00      0.00    100.00 Reservoir
  
  Link Results at 22:10 Hrs:
  ----------------------------------------------------------------------
  Link                  Flow  VelocityUnit Headloss    Status
  ID                     LPS       m/s      m/km
  ----------------------------------------------------------------------
  1                     2.55      1.23     33.82      Open
  4                     0.90      1.08     45.20      Open
  2                     1.05      0.80     20.13      Open
  5                     0.30      0.56     17.73      Open
  3                     0.50      0.60     15.21      Open
  
  Node Results at 22:20 Hrs:
  ----------------------------------------------------------------------
  Node                Demand      Head  Pressure   Quality
  ID                     LPS         m         m     hours
  ----------------------------------------------------------------------
  1                     0.60    131.54     31.54    100.06
  2                     0.25    121.48     26.48    100.23
  3                     0.50    116.10     24.10    100.39
  4                     1.20    108.94     19.94    100.28
  0                    -2.55    140.00      0.00    100.00 Reservoir
  
  Link Results at 22:20 Hrs:
  ----------------------------------------------------------------------
  Link                  Flow  VelocityUnit Headloss    Status
  ID                     LPS       m/s      m/km
  ----------------------------------------------------------------------
  1                     2.55      1.23     33.82      Open
  4                     0.90      1.08     45.20      Open
  2                     1.05      0.80     20.13      Open
  5                     0.30      0.56     17.73      Open
  3                     0.50      0.60     15.21      Open
  


  Page 69                                                               
  Node Results at 22:30 Hrs:
  ----------------------------------------------------------------------
  Node                Demand      Head  Pressure   Quality
  ID                     LPS         m         m     hours
  ----------------------------------------------------------------------
  1                     0.60    131.54     31.54    100.06
  2                     0.25    121.48     26.48    100.23
  3                     0.50    116.10     24.10    100.39
  4                     1.20    108.94     19.94    100.28
  0                    -2.55    140.00      0.00    100.00 Reservoir
  
  Link Results at 22:30 Hrs:
  ----------------------------------------------------------------------
  Link                  Flow  VelocityUnit Headloss    Status
  ID                     LPS       m/s      m/km
  ----------------------------------------------------------------------
  1                     2.55      1.23     33.82      Open
  4                     0.90      1.08     45.20      Open
  2                     1.05      0.80     20.13      Open
  5                     0.30      0.56     17.73      Open
  3                     0.50      0.60     15.21      Open
  
  Node Results at 22:40 Hrs:
  ----------------------------------------------------------------------
  Node                Demand      Head  Pressure   Quality
  ID                     LPS         m         m     hours
  ----------------------------------------------------------------------
  1                     0.60    131.54     31.54    100.06
  2                     0.25    121.48     26.48    100.23
  3                     0.50    116.10     24.10    100.39
  4                     1.20    108.94     19.94    100.28
  0                    -2.55    140.00      0.00    100.00 Reservoir
  
  Link Results at 22:40 Hrs:
  ----------------------------------------------------------------------
  Link                  Flow  VelocityUnit Headloss    Status
  ID                     LPS       m/s      m/km
  ----------------------------------------------------------------------
  1                     2.55      1.23     33.82      Open
  4                     0.90      1.08     45.20      Open
  2                     1.05      0.80     20.13      Open
  5                     0.30      0.56     17.73      Open
  3                     0.50      0.60     15.21      Open
  


  Page 70                                                               
  Node Results at 22:50 Hrs:
  ----------------------------------------------------------------------
  Node                Demand      Head  Pressure   Quality
  ID                     LPS         m         m     hours
  ----------------------------------------------------------------------
  1                     0.60    131.54     31.54    100.06
  2                     0.25    121.48     26.48    100.23
  3                     0.50    116.10     24.10    100.39
  4                     1.20    108.94     19.94    100.28
  0                    -2.55    140.00      0.00    100.00 Reservoir
  
  Link Results at 22:50 Hrs:
  ----------------------------------------------------------------------
  Link                  Flow  VelocityUnit Headloss    Status
  ID                     LPS       m/s      m/km
  ----------------------------------------------------------------------
  1                     2.55      1.23     33.82      Open
  4                     0.90      1.08     45.20      Open
  2                     1.05      0.80     20.13      Open
  5                     0.30      0.56     17.73      Open
  3                     0.50      0.60     15.21      Open
  
  Node Results at 23:00 Hrs:
  ----------------------------------------------------------------------
  Node                Demand      Head  Pressure   Quality
  ID                     LPS         m         m     hours
  ----------------------------------------------------------------------
  1                     0.60    131.54     31.54    100.06
  2                     0.25    121.48     26.48    100.23
  3                     0.50    116.10     24.10    100.39
  4                     1.20    108.94     19.94    100.28
  0                    -2.55    140.00      0.00    100.00 Reservoir
  
  Link Results at 23:00 Hrs:
  ----------------------------------------------------------------------
  Link                  Flow  VelocityUnit Headloss    Status
  ID                     LPS       m/s      m/km
  ----------------------------------------------------------------------
  1                     2.55      1.23     33.82      Open
  4                     0.90      1.08     45.20      Open
  2                     1.05      0.80     20.13      Open
  5                     0.30      0.56     17.73      Open
  3                     0.50      0.60     15.21      Open
  


  Page 71                                                               
  Node Results at 23:10 Hrs:
  ----------------------------------------------------------------------
  Node                Demand      Head  Pressure   Quality
  ID                     LPS         m         m     hours
  ----------------------------------------------------------------------
  1                     0.60    131.54     31.54    100.06
  2                     0.25    121.48     26.48    100.23
  3                     0.50    116.10     24.10    100.39
  4                     1.20    108.94     19.94    100.28
  0                    -2.55    140.00      0.00    100.00 Reservoir
  
  Link Results at 23:10 Hrs:
  ----------------------------------------------------------------------
  Link                  Flow  VelocityUnit Headloss    Status
  ID                     LPS       m/s      m/km
  ----------------------------------------------------------------------
  1                     2.55      1.23     33.82      Open
  4                     0.90      1.08     45.20      Open
  2                     1.05      0.80     20.13      Open
  5                     0.30      0.56     17.73      Open
  3                     0.50      0.60     15.21      Open
  
  Node Results at 23:20 Hrs:
  ----------------------------------------------------------------------
  Node                Demand      Head  Pressure   Quality
  ID                     LPS         m         m     hours
  ----------------------------------------------------------------------
  1                     0.60    131.54     31.54    100.06
  2                     0.25    121.48     26.48    100.23
  3                     0.50    116.10     24.10    100.39
  4                     1.20    108.94     19.94    100.28
  0                    -2.55    140.00      0.00    100.00 Reservoir
  
  Link Results at 23:20 Hrs:
  ----------------------------------------------------------------------
  Link                  Flow  VelocityUnit Headloss    Status
  ID                     LPS       m/s      m/km
  ----------------------------------------------------------------------
  1                     2.55      1.23     33.82      Open
  4                     0.90      1.08     45.20      Open
  2                     1.05      0.80     20.13      Open
  5                     0.30      0.56     17.73      Open
  3                     0.50      0.60     15.21      Open
  


  Page 72                                                               
  Node Results at 23:30 Hrs:
  ----------------------------------------------------------------------
  Node                Demand      Head  Pressure   Quality
  ID                     LPS         m         m     hours
  ----------------------------------------------------------------------
  1                     0.60    131.54     31.54    100.06
  2                     0.25    121.48     26.48    100.23
  3                     0.50    116.10     24.10    100.39
  4                     1.20    108.94     19.94    100.28
  0                    -2.55    140.00      0.00    100.00 Reservoir
  
  Link Results at 23:30 Hrs:
  ----------------------------------------------------------------------
  Link                  Flow  VelocityUnit Headloss    Status
  ID                     LPS       m/s      m/km
  ----------------------------------------------------------------------
  1                     2.55      1.23     33.82      Open
  4                     0.90      1.08     45.20      Open
  2                     1.05      0.80     20.13      Open
  5                     0.30      0.56     17.73      Open
  3                     0.50      0.60     15.21      Open
  
  Node Results at 23:40 Hrs:
  ----------------------------------------------------------------------
  Node                Demand      Head  Pressure   Quality
  ID                     LPS         m         m     hours
  ----------------------------------------------------------------------
  1                     0.60    131.54     31.54    100.06
  2                     0.25    121.48     26.48    100.23
  3                     0.50    116.10     24.10    100.39
  4                     1.20    108.94     19.94    100.28
  0                    -2.55    140.00      0.00    100.00 Reservoir
  
  Link Results at 23:40 Hrs:
  ----------------------------------------------------------------------
  Link                  Flow  VelocityUnit Headloss    Status
  ID                     LPS       m/s      m/km
  ----------------------------------------------------------------------
  1                     2.55      1.23     33.82      Open
  4                     0.90      1.08     45.20      Open
  2                     1.05      0.80     20.13      Open
  5                     0.30      0.56     17.73      Open
  3                     0.50      0.60     15.21      Open
  


  Page 73                                                               
  Node Results at 23:50 Hrs:
  ----------------------------------------------------------------------
  Node                Demand      Head  Pressure   Quality
  ID                     LPS         m         m     hours
  ----------------------------------------------------------------------
  1                     0.60    131.54     31.54    100.06
  2                     0.25    121.48     26.48    100.23
  3                     0.50    116.10     24.10    100.39
  4                     1.20    108.94     19.94    100.28
  0                    -2.55    140.00      0.00    100.00 Reservoir
  
  Link Results at 23:50 Hrs:
  ----------------------------------------------------------------------
  Link                  Flow  VelocityUnit Headloss    Status
  ID                     LPS       m/s      m/km
  ----------------------------------------------------------------------
  1                     2.55      1.23     33.82      Open
  4                     0.90      1.08     45.20      Open
  2                     1.05      0.80     20.13      Open
  5                     0.30      0.56     17.73      Open
  3                     0.50      0.60     15.21      Open
  
  Node Results at 24:00 Hrs:
  ----------------------------------------------------------------------
  Node                Demand      Head  Pressure   Quality
  ID                     LPS         m         m     hours
  ----------------------------------------------------------------------
  1                     0.60    131.54     31.54    100.06
  2                     0.25    121.48     26.48    100.23
  3                     0.50    116.10     24.10    100.39
  4                     1.20    108.94     19.94    100.28
  0                    -2.55    140.00      0.00    100.00 Reservoir
  
  Link Results at 24:00 Hrs:
  ----------------------------------------------------------------------
  Link                  Flow  VelocityUnit Headloss    Status
  ID                     LPS       m/s      m/km
  ----------------------------------------------------------------------
  1                     2.55      1.23     33.82      Open
  4                     0.90      1.08     45.20      Open
  2                     1.05      0.80     20.13      Open
  5                     0.30      0.56     17.73      Open
  3                     0.50      0.60     15.21      Open
  
